 Abaqus/Standard 2021.HF9                  DATE 15-Mar-2022 TIME 17:08:59
 SUMMARY OF JOB INFORMATION:
 STEP  INC ATT SEVERE EQUIL TOTAL  TOTAL      STEP       INC OF       DOF    IF
               DISCON ITERS ITERS  TIME/    TIME/LPF    TIME/LPF    MONITOR RIKS
               ITERS               FREQ
   1     1   1     0     2     2  0.0100     0.0100     0.01000   
   1     2   1     0     1     1  0.0200     0.0200     0.01000   
   1     3   1     0     1     1  0.0350     0.0350     0.01500   
   1     4   1     0     1     1  0.0575     0.0575     0.02250   
   1     5   1     0     1     1  0.0912     0.0912     0.03375   
   1     6   1     0     1     1  0.141      0.141      0.05000   
   1     7   1     0     1     1  0.191      0.191      0.05000   
   1     8   1     0     1     1  0.241      0.241      0.05000   
   1     9   1     0     1     1  0.291      0.291      0.05000   
   1    10   1     0     1     1  0.341      0.341      0.05000   
   1    11   1U    0     1     1  0.341      0.341      0.05000   
   1    11   2     0     4     4  0.382      0.382      0.04099   
   1    12   1U    0     1     1  0.382      0.382      0.05000   
   1    12   2U    0     1     1  0.382      0.382      0.03853   
   1    12   3     0     4     4  0.398      0.398      0.01578   
   1    13   1U    0     1     1  0.398      0.398      0.02366   
   1    13   2U    0     1     1  0.398      0.398      0.01748   
   1    13   3     0     2     2  0.405      0.405      0.006654  
   1    14   1U    0     1     1  0.405      0.405      0.009981  
   1    14   2U    0     1     1  0.405      0.405      0.004091  
   1    14   3U    0     1     1  0.405      0.405      0.0005117 
   1    14   4U    0     1     1  0.405      0.405      5.209e-05 
   1    14   5U    0     1     1  0.405      0.405      6.037e-06 
   1    14   6     0     2     2  0.405      0.405      6.560e-07 
   1    15   1     0     2     2  0.405      0.405      9.840e-07 
   1    16   1     0     2     2  0.405      0.405      1.476e-06 
   1    17   1     0     1     1  0.405      0.405      2.214e-06 
   1    18   1     0     1     1  0.405      0.405      3.321e-06 
   1    19   1     0     1     1  0.405      0.405      4.982e-06 
   1    20   1     0     1     1  0.405      0.405      7.473e-06 
   1    21   1     0     1     1  0.405      0.405      1.121e-05 
   1    22   1     0     1     1  0.405      0.405      1.681e-05 
   1    23   1     0     1     1  0.405      0.405      2.522e-05 
   1    24   1     0     1     1  0.405      0.405      3.783e-05 
   1    25   1     0     1     1  0.405      0.405      5.675e-05 
   1    26   1     0     1     1  0.405      0.405      8.512e-05 
   1    27   1     0     1     1  0.405      0.405      0.0001277 
   1    28   1     0     2     2  0.405      0.405      0.0001915 
   1    29   1U    0     1     1  0.405      0.405      0.0002873 
   1    29   2     0     2     2  0.405      0.405      0.0002269 
   1    30   1U    0     1     1  0.405      0.405      0.0003403 
   1    30   2U    0     1     1  0.405      0.405      0.0001764 
   1    30   3U    0     1     1  0.405      0.405      4.499e-05 
   1    30   4U    0     1     1  0.405      0.405      1.037e-05 
   1    30   5U    0     1     1  0.405      0.405      2.056e-06 
   1    30   6     0     1     1  0.405      0.405      3.393e-07 
   1    31   1     0     2     2  0.405      0.405      5.089e-07 
   1    32   1     0     2     2  0.405      0.405      7.633e-07 
   1    33   1     0     1     1  0.405      0.405      1.145e-06 
   1    34   1     0     1     1  0.405      0.405      1.718e-06 
   1    35   1     0     1     1  0.405      0.405      2.576e-06 
   1    36   1     0     1     1  0.405      0.405      3.864e-06 
   1    37   1     0     1     1  0.405      0.405      5.797e-06 
   1    38   1     0     1     1  0.405      0.405      8.695e-06 
   1    39   1     0     1     1  0.406      0.406      1.304e-05 
   1    40   1     0     1     1  0.406      0.406      1.956e-05 
   1    41   1     0     1     1  0.406      0.406      2.935e-05 
   1    42   1     0     1     1  0.406      0.406      4.402e-05 
   1    43   1     0     2     2  0.406      0.406      6.603e-05 
   1    44   1     0     2     2  0.406      0.406      9.904e-05 
   1    45   1     0     2     2  0.406      0.406      0.0001486 
   1    46   1     0     2     2  0.406      0.406      0.0002228 
   1    47   1U    0     1     1  0.406      0.406      0.0003343 
   1    47   2U    0     1     1  0.406      0.406      0.0001094 
   1    47   3U    0     1     1  0.406      0.406      2.820e-05 
   1    47   4     0     1     1  0.406      0.406      7.732e-06 
   1    48   1     0     1     1  0.406      0.406      1.160e-05 
   1    49   1U    0     1     1  0.406      0.406      1.740e-05 
   1    49   2U    0     1     1  0.406      0.406      1.260e-05 
   1    49   3U    0     1     1  0.406      0.406      4.665e-06 
   1    49   4U    0     1     1  0.406      0.406      1.198e-06 
   1    49   5U    0     1     1  0.406      0.406      2.348e-07 
   1    49   6     0     1     1  0.406      0.406      3.703e-08 
   1    50   1     0     1     1  0.406      0.406      5.555e-08 
   1    51   1     0     1     1  0.406      0.406      8.333e-08 
   1    52   1     0     1     1  0.406      0.406      1.250e-07 
   1    53   1     0     1     1  0.406      0.406      1.875e-07 
   1    54   1     0     1     1  0.406      0.406      2.812e-07 
   1    55   1     0     1     1  0.406      0.406      4.218e-07 
   1    56   1     0     1     1  0.406      0.406      6.328e-07 
   1    57   1     0     1     1  0.406      0.406      9.491e-07 
   1    58   1     0     1     1  0.406      0.406      1.424e-06 
   1    59   1     0     1     1  0.406      0.406      2.136e-06 
   1    60   1     0     1     1  0.406      0.406      3.203e-06 
   1    61   1     0     1     1  0.406      0.406      4.805e-06 
   1    62   1     0     1     1  0.406      0.406      7.208e-06 
   1    63   1     0     1     1  0.406      0.406      1.081e-05 
   1    64   1     0     1     1  0.406      0.406      1.622e-05 
   1    65   1     0     1     1  0.406      0.406      2.433e-05 
   1    66   1     0     1     1  0.406      0.406      3.649e-05 
   1    67   1     0     2     2  0.406      0.406      5.473e-05 
   1    68   1     0     2     2  0.406      0.406      8.210e-05 
   1    69   1     0     2     2  0.407      0.407      0.0001231 
   1    70   1U    0     1     1  0.407      0.407      0.0001847 
   1    70   2     0     2     2  0.407      0.407      0.0001276 
   1    71   1U    0     1     1  0.407      0.407      0.0001913 
   1    71   2U    0     1     1  0.407      0.407      7.823e-05 
   1    71   3U    0     1     1  0.407      0.407      1.958e-05 
   1    71   4U    0     1     1  0.407      0.407      4.024e-06 
   1    71   5U    0     1     1  0.407      0.407      6.733e-07 
   1    71   6     0     1     1  0.407      0.407      9.194e-08 
   1    72   1     0     1     1  0.407      0.407      1.379e-07 
   1    73   1     0     2     2  0.407      0.407      2.069e-07 
   1    74   1     0     1     1  0.407      0.407      3.103e-07 
   1    75   1     0     1     1  0.407      0.407      4.654e-07 
   1    76   1     0     1     1  0.407      0.407      6.982e-07 
   1    77   1     0     1     1  0.407      0.407      1.047e-06 
   1    78   1     0     1     1  0.407      0.407      1.571e-06 
   1    79   1     0     1     1  0.407      0.407      2.356e-06 
   1    80   1     0     1     1  0.407      0.407      3.534e-06 
   1    81   1     0     1     1  0.407      0.407      5.302e-06 
   1    82   1     0     1     1  0.407      0.407      7.952e-06 
   1    83   1     0     1     1  0.407      0.407      1.193e-05 
   1    84   1     0     1     1  0.407      0.407      1.789e-05 
   1    85   1     0     1     1  0.407      0.407      2.684e-05 
   1    86   1     0     1     1  0.407      0.407      4.026e-05 
   1    87   1     0     1     1  0.407      0.407      6.039e-05 
   1    88   1     0     2     2  0.407      0.407      9.058e-05 
   1    89   1     0     2     2  0.407      0.407      0.0001359 
   1    90   1U    0     1     1  0.407      0.407      0.0002038 
   1    90   2U    0     1     1  0.407      0.407      6.985e-05 
   1    90   3     0     1     1  0.407      0.407      1.997e-05 
   1    91   1U    0     1     1  0.407      0.407      2.996e-05 
   1    91   2U    0     1     1  0.407      0.407      1.658e-05 
   1    91   3U    0     1     1  0.407      0.407      5.087e-06 
   1    91   4U    0     1     1  0.407      0.407      1.160e-06 
   1    91   5U    0     1     1  0.407      0.407      2.066e-07 
   1    91   6     0     1     1  0.407      0.407      2.975e-08 
   1    92   1     0     1     1  0.407      0.407      4.463e-08 
   1    93   1     0     2     2  0.407      0.407      6.694e-08 
   1    94   1     0     1     1  0.407      0.407      1.004e-07 
   1    95   1     0     1     1  0.407      0.407      1.506e-07 
   1    96   1     0     1     1  0.407      0.407      2.259e-07 
   1    97   1     0     1     1  0.407      0.407      3.389e-07 
   1    98   1     0     1     1  0.407      0.407      5.083e-07 
   1    99   1     0     1     1  0.407      0.407      7.625e-07 
   1   100   1     0     1     1  0.407      0.407      1.144e-06 
   1   101   1     0     1     1  0.407      0.407      1.716e-06 
   1   102   1     0     1     1  0.407      0.407      2.573e-06 
   1   103   1     0     1     1  0.407      0.407      3.860e-06 
   1   104   1     0     1     1  0.407      0.407      5.790e-06 
   1   105   1     0     1     1  0.407      0.407      8.685e-06 
   1   106   1     0     1     1  0.407      0.407      1.303e-05 
   1   107   1     0     1     1  0.407      0.407      1.954e-05 
   1   108   1     0     1     1  0.407      0.407      2.931e-05 
   1   109   1     0     1     1  0.407      0.407      4.397e-05 
   1   110   1     0     2     2  0.407      0.407      6.595e-05 
   1   111   1     0     2     2  0.407      0.407      9.893e-05 
   1   112   1     0     2     2  0.408      0.408      0.0001484 
   1   113   1U    0     1     1  0.408      0.408      0.0002226 
   1   113   2U    0     1     1  0.408      0.408      8.375e-05 
   1   113   3U    0     1     1  0.408      0.408      2.068e-05 
   1   113   4U    0     1     1  0.408      0.408      4.403e-06 
   1   113   5U    0     1     1  0.408      0.408      8.236e-07 
   1   113   6     0     1     1  0.408      0.408      1.282e-07 
   1   114   1     0     2     2  0.408      0.408      1.923e-07 
   1   115   1     0     1     1  0.408      0.408      2.884e-07 
   1   116   1     0     1     1  0.408      0.408      4.326e-07 
   1   117   1     0     1     1  0.408      0.408      6.489e-07 
   1   118   1     0     1     1  0.408      0.408      9.733e-07 
   1   119   1     0     1     1  0.408      0.408      1.460e-06 
   1   120   1     0     1     1  0.408      0.408      2.190e-06 
   1   121   1     0     1     1  0.408      0.408      3.285e-06 
   1   122   1     0     1     1  0.408      0.408      4.928e-06 
   1   123   1     0     1     1  0.408      0.408      7.391e-06 
   1   124   1     0     1     1  0.408      0.408      1.109e-05 
   1   125   1     0     1     1  0.408      0.408      1.663e-05 
   1   126   1     0     1     1  0.408      0.408      2.495e-05 
   1   127   1     0     1     1  0.408      0.408      3.742e-05 
   1   128   1     0     1     1  0.408      0.408      5.613e-05 
   1   129   1     0     1     1  0.408      0.408      8.419e-05 
   1   130   1U    0     1     1  0.408      0.408      0.0001263 
   1   130   2U    0     1     1  0.408      0.408      8.192e-05 
   1   130   3     0     1     1  0.408      0.408      3.331e-05 
   1   131   1U    0     1     1  0.408      0.408      4.996e-05 
   1   131   2U    0     1     1  0.408      0.408      3.543e-05 
   1   131   3     0     1     1  0.408      0.408      1.409e-05 
   1   132   1     0     2     2  0.408      0.408      2.114e-05 
   1   133   1     0     2     2  0.408      0.408      3.171e-05 
   1   134   1     0     1     1  0.408      0.408      4.757e-05 
   1   135   1     0     2     2  0.408      0.408      7.135e-05 
   1   136   1U    0     1     1  0.408      0.408      0.0001070 
   1   136   2     0     2     2  0.408      0.408      6.956e-05 
   1   137   1U    0     1     1  0.408      0.408      0.0001043 
   1   137   2U    0     1     1  0.408      0.408      5.723e-05 
   1   137   3U    0     1     1  0.408      0.408      1.890e-05 
   1   137   4     0     2     2  0.408      0.408      5.067e-06 
   1   138   1     0     2     2  0.408      0.408      7.601e-06 
   1   139   1     0     2     2  0.408      0.408      1.140e-05 
   1   140   1     0     1     1  0.408      0.408      1.710e-05 
   1   141   1     0     1     1  0.408      0.408      2.565e-05 
   1   142   1     0     2     2  0.408      0.408      3.848e-05 
   1   143   1     0     2     2  0.408      0.408      5.772e-05 
   1   144   1     0     2     2  0.408      0.408      8.658e-05 
   1   145   1     0     2     2  0.408      0.408      0.0001299 
   1   146   1U    0     1     1  0.408      0.408      0.0001948 
   1   146   2U    0     1     1  0.408      0.408      8.824e-05 
   1   146   3     0     1     1  0.408      0.408      2.709e-05 
   1   147   1U    0     1     1  0.408      0.408      4.064e-05 
   1   147   2U    0     1     1  0.408      0.408      2.825e-05 
   1   147   3     0     1     1  0.408      0.408      1.153e-05 
   1   148   1U    0     1     1  0.408      0.408      1.729e-05 
   1   148   2     0     1     1  0.409      0.409      1.373e-05 
   1   149   1     0     2     2  0.409      0.409      2.059e-05 
   1   150   1     0     2     2  0.409      0.409      3.089e-05 
   1   151   1     0     1     1  0.409      0.409      4.634e-05 
   1   152   1     0     1     1  0.409      0.409      6.951e-05 
   1   153   1     0     2     2  0.409      0.409      0.0001043 
   1   154   1U    0     1     1  0.409      0.409      0.0001564 
   1   154   2     0     2     2  0.409      0.409      9.352e-05 
   1   155   1     0     3     3  0.409      0.409      0.0001403 
   1   156   1     0     2     2  0.409      0.409      0.0002104 
   1   157   1U    0     1     1  0.409      0.409      0.0003156 
   1   157   2     0     2     2  0.409      0.409      0.0001381 
   1   158   1U    0     1     1  0.409      0.409      0.0002071 
   1   158   2U    0     1     1  0.409      0.409      4.772e-05 
   1   158   3     0     1     1  0.409      0.409      1.616e-05 
   1   159   1U    0     1     1  0.409      0.409      2.423e-05 
   1   159   2U    0     1     1  0.409      0.409      1.729e-05 
   1   159   3     0     1     1  0.409      0.409      6.795e-06 
   1   160   1     0     2     2  0.409      0.409      1.019e-05 
   1   161   1     0     2     2  0.409      0.409      1.529e-05 
   1   162   1U    0     1     1  0.409      0.409      2.293e-05 
   1   162   2     0     1     1  0.409      0.409      1.880e-05 
   1   163   1     0     2     2  0.409      0.409      2.820e-05 
   1   164   1     0     2     2  0.409      0.409      4.230e-05 
   1   165   1     0     2     2  0.410      0.410      6.345e-05 
   1   166   1     0     2     2  0.410      0.410      9.517e-05 
   1   167   1     0     2     2  0.410      0.410      0.0001428 
   1   168   1U    0     1     1  0.410      0.410      0.0002141 
   1   168   2U    0     1     1  0.410      0.410      0.0001104 
   1   168   3     0     1     1  0.410      0.410      2.782e-05 
   1   169   1U    0     1     1  0.410      0.410      4.173e-05 
   1   169   2U    0     1     1  0.410      0.410      2.791e-05 
   1   169   3     0     1     1  0.410      0.410      1.098e-05 
   1   170   1     0     2     2  0.410      0.410      1.647e-05 
   1   171   1     0     2     2  0.410      0.410      2.471e-05 
   1   172   1     0     1     1  0.410      0.410      3.706e-05 
   1   173   1     0     1     1  0.410      0.410      5.559e-05 
   1   174   1     0     2     2  0.410      0.410      8.339e-05 
   1   175   1     0     2     2  0.410      0.410      0.0001251 
   1   176   1U    0     1     1  0.410      0.410      0.0001876 
   1   176   2U    0     1     1  0.410      0.410      6.679e-05 
   1   176   3     0     1     1  0.410      0.410      2.501e-05 
   1   177   1U    0     1     1  0.410      0.410      3.752e-05 
   1   177   2U    0     1     1  0.410      0.410      2.680e-05 
   1   177   3     0     1     1  0.410      0.410      1.073e-05 
   1   178   1     0     2     2  0.410      0.410      1.610e-05 
   1   179   1     0     2     2  0.410      0.410      2.415e-05 
   1   180   1     0     1     1  0.410      0.410      3.622e-05 
   1   181   1     0     1     1  0.410      0.410      5.433e-05 
   1   182   1     0     1     1  0.410      0.410      8.149e-05 
   1   183   1     0     2     2  0.411      0.411      0.0001222 
   1   184   1U    0     1     1  0.411      0.411      0.0001834 
   1   184   2     0     2     2  0.411      0.411      0.0001490 
   1   185   1U    0     1     1  0.411      0.411      0.0002235 
   1   185   2U    0     1     1  0.411      0.411      0.0001805 
   1   185   3     0     3     3  0.411      0.411      7.360e-05 
   1   186   1     0     3     3  0.411      0.411      0.0001104 
   1   187   1     0     2     2  0.411      0.411      0.0001656 
   1   188   1     0     2     2  0.411      0.411      0.0002484 
   1   189   1U    0     1     1  0.411      0.411      0.0003726 
   1   189   2U    0     1     1  0.411      0.411      0.0002306 
   1   189   3U    0     1     1  0.411      0.411      7.341e-05 
   1   189   4     0     1     1  0.411      0.411      1.653e-05 
   1   190   1U    0     1     1  0.411      0.411      2.480e-05 
   1   190   2     0     1     1  0.411      0.411      1.994e-05 
   1   191   1     0     2     2  0.411      0.411      2.991e-05 
   1   192   1     0     2     2  0.411      0.411      4.486e-05 
   1   193   1     0     1     1  0.411      0.411      6.729e-05 
   1   194   1     0     2     2  0.412      0.412      0.0001009 
   1   195   1     0     2     2  0.412      0.412      0.0001514 
   1   196   1U    0     1     1  0.412      0.412      0.0002271 
   1   196   2U    0     1     1  0.412      0.412      9.472e-05 
   1   196   3     0     1     1  0.412      0.412      2.953e-05 
   1   197   1U    0     1     1  0.412      0.412      4.429e-05 
   1   197   2U    0     1     1  0.412      0.412      2.880e-05 
   1   197   3     0     1     1  0.412      0.412      1.076e-05 
   1   198   1     0     2     2  0.412      0.412      1.614e-05 
   1   199   1     0     2     2  0.412      0.412      2.421e-05 
   1   200   1     0     1     1  0.412      0.412      3.632e-05 
   1   201   1     0     1     1  0.412      0.412      5.447e-05 
   1   202   1     0     1     1  0.412      0.412      8.171e-05 
   1   203   1     0     2     2  0.412      0.412      0.0001226 
   1   204   1     0     2     2  0.412      0.412      0.0001838 
   1   205   1U    0     1     1  0.412      0.412      0.0002758 
   1   205   2U    0     1     1  0.412      0.412      0.0001031 
   1   205   3     0     1     1  0.412      0.412      2.951e-05 
   1   206   1U    0     1     1  0.412      0.412      4.426e-05 
   1   206   2U    0     1     1  0.412      0.412      2.933e-05 
   1   206   3     0     1     1  0.412      0.412      1.130e-05 
   1   207   1     0     2     2  0.412      0.412      1.695e-05 
   1   208   1     0     2     2  0.412      0.412      2.542e-05 
   1   209   1     0     1     1  0.412      0.412      3.813e-05 
   1   210   1     0     1     1  0.412      0.412      5.720e-05 
   1   211   1     0     1     1  0.413      0.413      8.579e-05 
   1   212   1     0     3     3  0.413      0.413      0.0001287 
   1   213   1     0     2     2  0.413      0.413      0.0001930 
   1   214   1U    0     1     1  0.413      0.413      0.0002896 
   1   214   2U    0     1     1  0.413      0.413      0.0002040 
   1   214   3     0     2     2  0.413      0.413      6.963e-05 
   1   215   1     0     3     3  0.413      0.413      0.0001044 
   1   216   1     0     2     2  0.413      0.413      0.0001567 
   1   217   1     0     2     2  0.413      0.413      0.0002350 
   1   218   1U    0     1     1  0.413      0.413      0.0003525 
   1   218   2U    0     1     1  0.413      0.413      0.0002405 
   1   218   3     0     2     2  0.414      0.414      9.339e-05 
   1   219   1U    0     1     1  0.414      0.414      0.0001401 
   1   219   2U    0     1     1  0.414      0.414      9.160e-05 
   1   219   3     0     1     1  0.414      0.414      3.331e-05 
   1   220   1     0     3     3  0.414      0.414      4.996e-05 
   1   221   1     0     2     2  0.414      0.414      7.494e-05 
   1   222   1     0     1     1  0.414      0.414      0.0001124 
   1   223   1     0     2     2  0.414      0.414      0.0001686 
   1   224   1     0     2     2  0.414      0.414      0.0002529 
   1   225   1U    0     1     1  0.414      0.414      0.0003794 
   1   225   2U    0     1     1  0.414      0.414      0.0002188 
   1   225   3     0     2     2  0.414      0.414      7.763e-05 
   1   226   1U    0     1     1  0.414      0.414      0.0001164 
   1   226   2U    0     1     1  0.414      0.414      7.578e-05 
   1   226   3     0     1     1  0.414      0.414      2.774e-05 
   1   227   1     0     3     3  0.414      0.414      4.161e-05 
   1   228   1     0     2     2  0.414      0.414      6.242e-05 
   1   229   1     0     1     1  0.415      0.415      9.362e-05 
   1   230   1     0     1     1  0.415      0.415      0.0001404 
   1   231   1     0     1     1  0.415      0.415      0.0002107 
   1   232   1     0     2     2  0.415      0.415      0.0003160 
   1   233   1     0     1     1  0.416      0.416      0.0004740 
   1   234   1     0     1     1  0.416      0.416      0.0007110 
   1   235   1     0     1     1  0.417      0.417      0.001066  
   1   236   1     0     1     1  0.419      0.419      0.001600  
   1   237   1     0     1     1  0.421      0.421      0.002399  
   1   238   1     0     1     1  0.425      0.425      0.003599  
   1   239   1     0     1     1  0.430      0.430      0.005399  
   1   240   1     0     1     1  0.439      0.439      0.008098  
   1   241   1     0     1     1  0.451      0.451      0.01215   
   1   242   1     0     1     1  0.469      0.469      0.01822   
   1   243   1     0     1     1  0.496      0.496      0.02733   
   1   244   1     0     1     1  0.537      0.537      0.04100   
   1   245   1     0     1     1  0.550      0.550      0.01276   
                          
 THE ANALYSIS HAS COMPLETED SUCCESSFULLY
