 Abaqus/Standard 2021.HF9                  DATE 15-Mar-2022 TIME 17:08:35
 SUMMARY OF JOB INFORMATION:
 STEP  INC ATT SEVERE EQUIL TOTAL  TOTAL      STEP       INC OF       DOF    IF
               DISCON ITERS ITERS  TIME/    TIME/LPF    TIME/LPF    MONITOR RIKS
               ITERS               FREQ
   1     1   1     0     2     2  0.0100     0.0100     0.01000   
   1     2   1     0     1     1  0.0200     0.0200     0.01000   
   1     3   1     0     1     1  0.0300     0.0300     0.01000   
   1     4   1     0     1     1  0.0400     0.0400     0.01000   
   1     5   1     0     1     1  0.0500     0.0500     0.01000   
   1     6   1     0     1     1  0.0600     0.0600     0.01000   
   1     7   1     0     1     1  0.0700     0.0700     0.01000   
   1     8   1     0     1     1  0.0800     0.0800     0.01000   
   1     9   1     0     1     1  0.0900     0.0900     0.01000   
   1    10   1     0     1     1  0.100      0.100      0.01000   
   1    11   1     0     1     1  0.110      0.110      0.01000   
   1    12   1     0     1     1  0.120      0.120      0.01000   
   1    13   1     0     1     1  0.130      0.130      0.01000   
   1    14   1     0     1     1  0.140      0.140      0.01000   
   1    15   1     0     1     1  0.150      0.150      0.01000   
   1    16   1     0     1     1  0.160      0.160      0.01000   
   1    17   1     0     1     1  0.170      0.170      0.01000   
   1    18   1     0     1     1  0.180      0.180      0.01000   
   1    19   1     0     1     1  0.190      0.190      0.01000   
   1    20   1     0     1     1  0.200      0.200      0.01000   
   1    21   1     0     1     1  0.210      0.210      0.01000   
   1    22   1     0     1     1  0.220      0.220      0.01000   
   1    23   1     0     1     1  0.230      0.230      0.01000   
   1    24   1     0     1     1  0.240      0.240      0.01000   
   1    25   1     0     1     1  0.250      0.250      0.01000   
   1    26   1     0     1     1  0.260      0.260      0.01000   
   1    27   1     0     1     1  0.270      0.270      0.01000   
   1    28   1     0     1     1  0.280      0.280      0.01000   
   1    29   1     0     1     1  0.290      0.290      0.01000   
   1    30   1     0     1     1  0.300      0.300      0.01000   
   1    31   1     0     1     1  0.310      0.310      0.01000   
   1    32   1     0     1     1  0.320      0.320      0.01000   
   1    33   1     0     1     1  0.330      0.330      0.01000   
   1    34   1     0     1     1  0.340      0.340      0.01000   
   1    35   1     0     1     1  0.350      0.350      0.01000   
   1    36   1     0     1     1  0.360      0.360      0.01000   
   1    37   1     0     1     1  0.370      0.370      0.01000   
   1    38   1     0     1     1  0.380      0.380      0.01000   
   1    39   1     0     1     1  0.390      0.390      0.01000   
   1    40   1     0     1     1  0.400      0.400      0.01000   
   1    41   1     0     1     1  0.410      0.410      0.01000   
   1    42   1     0     1     1  0.420      0.420      0.01000   
   1    43   1     0     1     1  0.430      0.430      0.01000   
   1    44   1     0     1     1  0.440      0.440      0.01000   
   1    45   1     0     1     1  0.450      0.450      0.01000   
   1    46   1     0     1     1  0.460      0.460      0.01000   
   1    47   1     0     1     1  0.470      0.470      0.01000   
   1    48   1     0     1     1  0.480      0.480      0.01000   
   1    49   1     0     1     1  0.490      0.490      0.01000   
   1    50   1     0     1     1  0.500      0.500      0.01000   
   1    51   1     0     1     1  0.510      0.510      0.01000   
   1    52   1     0     1     1  0.520      0.520      0.01000   
   1    53   1     0     1     1  0.530      0.530      0.01000   
   1    54   1     0     1     1  0.540      0.540      0.01000   
   1    55   1     0     1     1  0.550      0.550      0.01000   
   1    56   1     0     1     1  0.560      0.560      0.01000   
   1    57   1     0     1     1  0.570      0.570      0.01000   
   1    58   1     0     1     1  0.580      0.580      0.01000   
   1    59   1     0     1     1  0.590      0.590      0.01000   
   1    60   1     0     1     1  0.600      0.600      0.01000   
   1    61   1     0     1     1  0.610      0.610      0.01000   
   1    62   1     0     1     1  0.620      0.620      0.01000   
   1    63   1U    0     1     1  0.620      0.620      0.01000   
   1    63   2U    0     1     1  0.620      0.620      0.009285  
   1    63   3     0     2     2  0.624      0.624      0.004322  
   1    64   1     0     2     2  0.631      0.631      0.006483  
   1    65   1U    0     1     1  0.631      0.631      0.009724  
   1    65   2U    0     1     1  0.631      0.631      0.008028  
   1    65   3U    0     1     1  0.631      0.631      0.003323  
   1    65   4U    0     1     1  0.631      0.631      0.0009577 
   1    65   5U    0     1     1  0.631      0.631      0.0002147 
   1    65   6     0     1     1  0.631      0.631      4.071e-05 
   1    66   1     0     1     1  0.631      0.631      6.106e-05 
   1    67   1     0     3     3  0.631      0.631      9.159e-05 
   1    68   1     0     1     1  0.631      0.631      0.0001374 
   1    69   1     0     1     1  0.631      0.631      0.0002061 
   1    70   1U    0     1     1  0.631      0.631      0.0003091 
   1    70   2U    0     1     1  0.631      0.631      0.0002654 
   1    70   3     0     1     1  0.631      0.631      0.0001162 
   1    71   1     0     1     1  0.632      0.632      0.0001743 
   1    72   1     0     2     2  0.632      0.632      0.0002615 
   1    73   1U    0     1     1  0.632      0.632      0.0003923 
   1    73   2U    0     1     1  0.632      0.632      0.0003093 
   1    73   3U    0     1     1  0.632      0.632      0.0001255 
   1    73   4     0     1     1  0.632      0.632      3.843e-05 
   1    74   1U    0     1     1  0.632      0.632      5.764e-05 
   1    74   2U    0     1     1  0.632      0.632      5.263e-05 
   1    74   3     0     1     1  0.632      0.632      2.424e-05 
   1    75   1     0     1     1  0.632      0.632      3.636e-05 
   1    76   1     0     1     1  0.632      0.632      5.454e-05 
   1    77   1     0     1     1  0.632      0.632      8.180e-05 
   1    78   1     0     1     1  0.632      0.632      0.0001227 
   1    79   1U    0     1     1  0.632      0.632      0.0001841 
   1    79   2U    0     1     1  0.632      0.632      0.0001485 
   1    79   3U    0     1     1  0.632      0.632      6.158e-05 
   1    79   4     0     1     1  0.632      0.632      1.904e-05 
   1    80   1U    0     1     1  0.632      0.632      2.856e-05 
   1    80   2U    0     1     1  0.632      0.632      2.671e-05 
   1    80   3     0     1     1  0.632      0.632      1.255e-05 
   1    81   1     0     1     1  0.632      0.632      1.883e-05 
   1    82   1     0     1     1  0.632      0.632      2.825e-05 
   1    83   1     0     1     1  0.632      0.632      4.237e-05 
   1    84   1     0     1     1  0.632      0.632      6.355e-05 
   1    85   1     0     1     1  0.633      0.633      9.533e-05 
   1    86   1U    0     1     1  0.633      0.633      0.0001430 
   1    86   2U    0     1     1  0.633      0.633      0.0001189 
   1    86   3U    0     1     1  0.633      0.633      5.069e-05 
   1    86   4     0     1     1  0.633      0.633      1.607e-05 
   1    87   1     0     1     1  0.633      0.633      2.411e-05 
   1    88   1     0     1     1  0.633      0.633      3.616e-05 
   1    89   1     0     1     1  0.633      0.633      5.425e-05 
   1    90   1     0     1     1  0.633      0.633      8.137e-05 
   1    91   1     0     1     1  0.633      0.633      0.0001221 
   1    92   1U    0     1     1  0.633      0.633      0.0001831 
   1    92   2U    0     1     1  0.633      0.633      0.0001417 
   1    92   3U    0     1     1  0.633      0.633      5.411e-05 
   1    92   4     0     1     1  0.633      0.633      1.566e-05 
   1    93   1     0     1     1  0.633      0.633      2.349e-05 
   1    94   1     0     1     1  0.633      0.633      3.524e-05 
   1    95   1     0     1     1  0.633      0.633      5.286e-05 
   1    96   1     0     1     1  0.633      0.633      7.928e-05 
   1    97   1     0     1     1  0.633      0.633      0.0001189 
   1    98   1     0     1     1  0.633      0.633      0.0001784 
   1    99   1     0     2     2  0.634      0.634      0.0002676 
   1   100   1U    0     1     1  0.634      0.634      0.0004014 
   1   100   2U    0     1     1  0.634      0.634      0.0003093 
   1   100   3U    0     1     1  0.634      0.634      0.0001192 
   1   100   4U    0     1     1  0.634      0.634      3.029e-05 
   1   100   5     0     1     1  0.634      0.634      6.895e-06 
   1   101   1     0     1     1  0.634      0.634      1.034e-05 
   1   102   1     0     1     1  0.634      0.634      1.551e-05 
   1   103   1     0     1     1  0.634      0.634      2.327e-05 
   1   104   1     0     1     1  0.634      0.634      3.491e-05 
   1   105   1     0     1     1  0.634      0.634      5.236e-05 
   1   106   1     0     1     1  0.634      0.634      7.854e-05 
   1   107   1U    0     1     1  0.634      0.634      0.0001178 
   1   107   2U    0     1     1  0.634      0.634      0.0001010 
   1   107   3     0     1     1  0.634      0.634      4.431e-05 
   1   108   1     0     2     2  0.634      0.634      6.647e-05 
   1   109   1     0     2     2  0.634      0.634      9.970e-05 
   1   110   1     0     1     1  0.634      0.634      0.0001496 
   1   111   1U    0     1     1  0.634      0.634      0.0002243 
   1   111   2U    0     1     1  0.634      0.634      0.0001729 
   1   111   3U    0     1     1  0.634      0.634      6.579e-05 
   1   111   4U    0     1     1  0.634      0.634      1.855e-05 
   1   111   5     0     1     1  0.634      0.634      4.379e-06 
   1   112   1     0     1     1  0.634      0.634      6.569e-06 
   1   113   1     0     1     1  0.634      0.634      9.854e-06 
   1   114   1     0     1     1  0.634      0.634      1.478e-05 
   1   115   1     0     1     1  0.634      0.634      2.217e-05 
   1   116   1     0     1     1  0.634      0.634      3.326e-05 
   1   117   1     0     1     1  0.634      0.634      4.988e-05 
   1   118   1     0     1     1  0.634      0.634      7.483e-05 
   1   119   1U    0     1     1  0.634      0.634      0.0001122 
   1   119   2U    0     1     1  0.634      0.634      9.692e-05 
   1   119   3     0     1     1  0.634      0.634      4.267e-05 
   1   120   1     0     3     3  0.635      0.635      6.400e-05 
   1   121   1     0     2     2  0.635      0.635      9.600e-05 
   1   122   1     0     1     1  0.635      0.635      0.0001440 
   1   123   1U    0     1     1  0.635      0.635      0.0002160 
   1   123   2U    0     1     1  0.635      0.635      0.0001666 
   1   123   3U    0     1     1  0.635      0.635      6.433e-05 
   1   123   4     0     1     1  0.635      0.635      1.852e-05 
   1   124   1     0     1     1  0.635      0.635      2.778e-05 
   1   125   1     0     1     1  0.635      0.635      4.168e-05 
   1   126   1     0     1     1  0.635      0.635      6.251e-05 
   1   127   1     0     1     1  0.635      0.635      9.377e-05 
   1   128   1U    0     1     1  0.635      0.635      0.0001407 
   1   128   2U    0     1     1  0.635      0.635      0.0001196 
   1   128   3     0     1     1  0.635      0.635      5.220e-05 
   1   129   1     0     2     2  0.635      0.635      7.830e-05 
   1   130   1     0     2     2  0.635      0.635      0.0001175 
   1   131   1U    0     1     1  0.635      0.635      0.0001762 
   1   131   2     0     1     1  0.635      0.635      0.0001673 
   1   132   1     0     1     1  0.636      0.636      0.0002509 
   1   133   1U    0     1     1  0.636      0.636      0.0003764 
   1   133   2U    0     1     1  0.636      0.636      0.0003340 
   1   133   3     0     1     1  0.636      0.636      0.0001518 
   1   134   1U    0     1     1  0.636      0.636      0.0002278 
   1   134   2U    0     1     1  0.636      0.636      0.0001675 
   1   134   3U    0     1     1  0.636      0.636      6.416e-05 
   1   134   4     0     1     1  0.636      0.636      1.868e-05 
   1   135   1     0     1     1  0.636      0.636      2.802e-05 
   1   136   1     0     1     1  0.636      0.636      4.203e-05 
   1   137   1     0     1     1  0.636      0.636      6.304e-05 
   1   138   1     0     1     1  0.636      0.636      9.456e-05 
   1   139   1U    0     1     1  0.636      0.636      0.0001418 
   1   139   2U    0     1     1  0.636      0.636      0.0001194 
   1   139   3     0     1     1  0.636      0.636      5.166e-05 
   1   140   1     0     2     2  0.636      0.636      7.748e-05 
   1   141   1     0     2     2  0.636      0.636      0.0001162 
   1   142   1U    0     1     1  0.636      0.636      0.0001743 
   1   142   2     0     1     1  0.636      0.636      0.0001644 
   1   143   1     0     1     1  0.637      0.637      0.0002466 
   1   144   1U    0     1     1  0.637      0.637      0.0003699 
   1   144   2U    0     1     1  0.637      0.637      0.0003254 
   1   144   3     0     1     1  0.637      0.637      0.0001472 
   1   145   1U    0     1     1  0.637      0.637      0.0002208 
   1   145   2U    0     1     1  0.637      0.637      0.0001590 
   1   145   3U    0     1     1  0.637      0.637      6.022e-05 
   1   145   4     0     1     1  0.637      0.637      1.758e-05 
   1   146   1     0     1     1  0.637      0.637      2.636e-05 
   1   147   1     0     1     1  0.637      0.637      3.955e-05 
   1   148   1     0     1     1  0.637      0.637      5.932e-05 
   1   149   1     0     1     1  0.637      0.637      8.898e-05 
   1   150   1U    0     1     1  0.637      0.637      0.0001335 
   1   150   2U    0     1     1  0.637      0.637      0.0001144 
   1   150   3     0     1     1  0.637      0.637      5.031e-05 
   1   151   1     0     2     2  0.637      0.637      7.546e-05 
   1   152   1     0     2     2  0.637      0.637      0.0001132 
   1   153   1U    0     1     1  0.637      0.637      0.0001698 
   1   153   2U    0     1     1  0.637      0.637      0.0001584 
   1   153   3     0     1     1  0.637      0.637      7.474e-05 
   1   154   1U    0     1     1  0.637      0.637      0.0001121 
   1   154   2U    0     1     1  0.637      0.637      9.193e-05 
   1   154   3U    0     1     1  0.637      0.637      3.863e-05 
   1   154   4     0     1     1  0.637      0.637      1.194e-05 
   1   155   1U    0     1     1  0.637      0.637      1.791e-05 
   1   155   2U    0     1     1  0.637      0.637      1.678e-05 
   1   155   3     0     1     1  0.637      0.637      7.895e-06 
   1   156   1     0     1     1  0.637      0.637      1.184e-05 
   1   157   1     0     1     1  0.637      0.637      1.776e-05 
   1   158   1     0     1     1  0.638      0.638      2.665e-05 
   1   159   1     0     1     1  0.638      0.638      3.997e-05 
   1   160   1     0     1     1  0.638      0.638      5.995e-05 
   1   161   1     0     1     1  0.638      0.638      8.993e-05 
   1   162   1U    0     1     1  0.638      0.638      0.0001349 
   1   162   2U    0     1     1  0.638      0.638      0.0001027 
   1   162   3U    0     1     1  0.638      0.638      4.040e-05 
   1   162   4     0     1     1  0.638      0.638      1.179e-05 
   1   163   1     0     1     1  0.638      0.638      1.768e-05 
   1   164   1     0     2     2  0.638      0.638      2.653e-05 
   1   165   1     0     1     1  0.638      0.638      3.979e-05 
   1   166   1     0     1     1  0.638      0.638      5.969e-05 
   1   167   1     0     1     1  0.638      0.638      8.953e-05 
   1   168   1U    0     1     1  0.638      0.638      0.0001343 
   1   168   2U    0     1     1  0.638      0.638      0.0001037 
   1   168   3U    0     1     1  0.638      0.638      4.177e-05 
   1   168   4     0     1     1  0.638      0.638      1.275e-05 
   1   169   1U    0     1     1  0.638      0.638      1.913e-05 
   1   169   2U    0     1     1  0.638      0.638      1.777e-05 
   1   169   3     0     1     1  0.638      0.638      8.298e-06 
   1   170   1     0     1     1  0.638      0.638      1.245e-05 
   1   171   1     0     1     1  0.638      0.638      1.867e-05 
   1   172   1     0     1     1  0.638      0.638      2.801e-05 
   1   173   1     0     1     1  0.638      0.638      4.201e-05 
   1   174   1     0     1     1  0.638      0.638      6.301e-05 
   1   175   1     0     1     1  0.638      0.638      9.452e-05 
   1   176   1     0     1     1  0.638      0.638      0.0001418 
   1   177   1     0     2     2  0.639      0.639      0.0002127 
   1   178   1U    0     1     1  0.639      0.639      0.0003190 
   1   178   2U    0     1     1  0.639      0.639      0.0002411 
   1   178   3U    0     1     1  0.639      0.639      8.557e-05 
   1   178   4     0     1     1  0.639      0.639      2.348e-05 
   1   179   1     0     1     1  0.639      0.639      3.522e-05 
   1   180   1     0     1     1  0.639      0.639      5.283e-05 
   1   181   1     0     1     1  0.639      0.639      7.925e-05 
   1   182   1     0     1     1  0.639      0.639      0.0001189 
   1   183   1     0     1     1  0.639      0.639      0.0001783 
   1   184   1     0     2     2  0.639      0.639      0.0002675 
   1   185   1     0     2     2  0.640      0.640      0.0004012 
   1   186   1U    0     1     1  0.640      0.640      0.0006018 
   1   186   2U    0     1     1  0.640      0.640      0.0003922 
   1   186   3U    0     1     1  0.640      0.640      0.0001403 
   1   186   4     0     1     1  0.640      0.640      4.227e-05 
   1   187   1U    0     1     1  0.640      0.640      6.340e-05 
   1   187   2U    0     1     1  0.640      0.640      5.575e-05 
   1   187   3     0     1     1  0.640      0.640      2.501e-05 
   1   188   1     0     1     1  0.640      0.640      3.751e-05 
   1   189   1     0     1     1  0.640      0.640      5.627e-05 
   1   190   1     0     1     1  0.640      0.640      8.440e-05 
   1   191   1U    0     1     1  0.640      0.640      0.0001266 
   1   191   2U    0     1     1  0.640      0.640      0.0001136 
   1   191   3     0     1     1  0.640      0.640      5.202e-05 
   1   192   1U    0     1     1  0.640      0.640      7.803e-05 
   1   192   2U    0     1     1  0.640      0.640      6.304e-05 
   1   192   3U    0     1     1  0.640      0.640      2.627e-05 
   1   192   4     0     1     1  0.640      0.640      8.092e-06 
   1   193   1     0     1     1  0.640      0.640      1.214e-05 
   1   194   1     0     1     1  0.640      0.640      1.821e-05 
   1   195   1     0     1     1  0.640      0.640      2.731e-05 
   1   196   1     0     1     1  0.640      0.640      4.097e-05 
   1   197   1     0     1     1  0.640      0.640      6.145e-05 
   1   198   1U    0     1     1  0.640      0.640      9.217e-05 
   1   198   2U    0     1     1  0.640      0.640      8.554e-05 
   1   198   3     0     1     1  0.640      0.640      4.016e-05 
   1   199   1U    0     1     1  0.640      0.640      6.023e-05 
   1   199   2U    0     1     1  0.640      0.640      5.124e-05 
   1   199   3U    0     1     1  0.640      0.640      2.223e-05 
   1   199   4     0     1     1  0.640      0.640      6.986e-06 
   1   200   1     0     1     1  0.640      0.640      1.048e-05 
   1   201   1     0     1     1  0.640      0.640      1.572e-05 
   1   202   1     0     1     1  0.640      0.640      2.358e-05 
   1   203   1     0     1     1  0.640      0.640      3.537e-05 
   1   204   1     0     1     1  0.640      0.640      5.305e-05 
   1   205   1     0     1     1  0.640      0.640      7.957e-05 
   1   206   1U    0     1     1  0.640      0.640      0.0001194 
   1   206   2U    0     1     1  0.640      0.640      9.305e-05 
   1   206   3U    0     1     1  0.640      0.640      3.777e-05 
   1   206   4     0     1     1  0.640      0.640      1.160e-05 
   1   207   1U    0     1     1  0.640      0.640      1.741e-05 
   1   207   2U    0     1     1  0.640      0.640      1.626e-05 
   1   207   3     0     1     1  0.640      0.640      7.633e-06 
   1   208   1     0     1     1  0.641      0.641      1.145e-05 
   1   209   1     0     1     1  0.641      0.641      1.717e-05 
   1   210   1     0     1     1  0.641      0.641      2.576e-05 
   1   211   1     0     1     1  0.641      0.641      3.864e-05 
   1   212   1     0     1     1  0.641      0.641      5.796e-05 
   1   213   1     0     1     1  0.641      0.641      8.694e-05 
   1   214   1     0     2     2  0.641      0.641      0.0001304 
   1   215   1     0     2     2  0.641      0.641      0.0001956 
   1   216   1U    0     1     1  0.641      0.641      0.0002934 
   1   216   2U    0     1     1  0.641      0.641      0.0002201 
   1   216   3U    0     1     1  0.641      0.641      7.773e-05 
   1   216   4     0     1     1  0.641      0.641      2.139e-05 
   1   217   1     0     1     1  0.641      0.641      3.208e-05 
   1   218   1     0     1     1  0.641      0.641      4.812e-05 
   1   219   1     0     1     1  0.641      0.641      7.218e-05 
   1   220   1     0     1     1  0.641      0.641      0.0001083 
   1   221   1     0     1     1  0.641      0.641      0.0001624 
   1   222   1     0     2     2  0.642      0.642      0.0002436 
   1   223   1     0     2     2  0.642      0.642      0.0003654 
   1   224   1U    0     1     1  0.642      0.642      0.0005481 
   1   224   2U    0     1     1  0.642      0.642      0.0003779 
   1   224   3U    0     1     1  0.642      0.642      0.0001398 
   1   224   4     0     1     1  0.642      0.642      4.254e-05 
   1   225   1U    0     1     1  0.642      0.642      6.381e-05 
   1   225   2U    0     1     1  0.642      0.642      5.609e-05 
   1   225   3     0     1     1  0.642      0.642      2.514e-05 
   1   226   1     0     1     1  0.642      0.642      3.772e-05 
   1   227   1     0     1     1  0.642      0.642      5.657e-05 
   1   228   1     0     1     1  0.642      0.642      8.486e-05 
   1   229   1U    0     1     1  0.642      0.642      0.0001273 
   1   229   2U    0     1     1  0.642      0.642      0.0001093 
   1   229   3     0     1     1  0.642      0.642      4.844e-05 
   1   230   1U    0     1     1  0.642      0.642      7.266e-05 
   1   230   2U    0     1     1  0.642      0.642      5.659e-05 
   1   230   3U    0     1     1  0.642      0.642      2.291e-05 
   1   230   4     0     1     1  0.642      0.642      6.926e-06 
   1   231   1     0     1     1  0.642      0.642      1.039e-05 
   1   232   1     0     1     1  0.642      0.642      1.558e-05 
   1   233   1     0     1     1  0.642      0.642      2.338e-05 
   1   234   1     0     1     1  0.642      0.642      3.507e-05 
   1   235   1     0     1     1  0.643      0.643      5.260e-05 
   1   236   1     0     1     1  0.643      0.643      7.890e-05 
   1   237   1     0     2     2  0.643      0.643      0.0001183 
   1   238   1     0     2     2  0.643      0.643      0.0001775 
   1   239   1U    0     1     1  0.643      0.643      0.0002663 
   1   239   2U    0     1     1  0.643      0.643      0.0002272 
   1   239   3U    0     1     1  0.643      0.643      9.690e-05 
   1   239   4     0     1     1  0.643      0.643      2.233e-05 
   1   240   1U    0     1     1  0.643      0.643      3.349e-05 
   1   240   2U    0     1     1  0.643      0.643      2.858e-05 
   1   240   3U    0     1     1  0.643      0.643      1.220e-05 
   1   240   4     0     1     1  0.643      0.643      3.657e-06 
   1   241   1     0     2     2  0.643      0.643      5.485e-06 
   1   242   1     0     1     1  0.643      0.643      8.228e-06 
   1   243   1     0     1     1  0.643      0.643      1.234e-05 
   1   244   1     0     1     1  0.643      0.643      1.851e-05 
   1   245   1     0     1     1  0.643      0.643      2.777e-05 
   1   246   1     0     1     1  0.643      0.643      4.165e-05 
   1   247   1     0     3     3  0.643      0.643      6.248e-05 
   1   248   1     0     2     2  0.643      0.643      9.372e-05 
   1   249   1     0     2     2  0.643      0.643      0.0001406 
   1   250   1     0     2     2  0.644      0.644      0.0002109 
   1   251   1     0     1     1  0.644      0.644      0.0003163 
   1   252   1     0     1     1  0.644      0.644      0.0004745 
   1   253   1     0     1     1  0.645      0.645      0.0007117 
   1   254   1     0     1     1  0.646      0.646      0.001068  
   1   255   1     0     1     1  0.648      0.648      0.001601  
   1   256   1     0     1     1  0.650      0.650      0.002402  
   1   257   1     0     1     1  0.654      0.654      0.003603  
   1   258   1     0     1     1  0.659      0.659      0.005404  
   1   259   1     0     1     1  0.667      0.667      0.008106  
   1   260   1     0     1     1  0.677      0.677      0.01000   
   1   261   1     0     1     1  0.687      0.687      0.01000   
   1   262   1     0     1     1  0.697      0.697      0.01000   
   1   263   1     0     1     1  0.707      0.707      0.01000   
   1   264   1     0     1     1  0.717      0.717      0.01000   
   1   265   1     0     1     1  0.727      0.727      0.01000   
   1   266   1     0     1     1  0.737      0.737      0.01000   
   1   267   1     0     1     1  0.747      0.747      0.01000   
   1   268   1     0     1     1  0.757      0.757      0.01000   
   1   269   1     0     1     1  0.767      0.767      0.01000   
   1   270   1     0     1     1  0.777      0.777      0.01000   
   1   271   1     0     1     1  0.787      0.787      0.01000   
   1   272   1     0     1     1  0.797      0.797      0.01000   
   1   273   1     0     1     1  0.800      0.800      0.002744  
                          
 THE ANALYSIS HAS COMPLETED SUCCESSFULLY
