1

   Abaqus 2021.HF9                                  Date 15-Mar-2022   Time 17:08:07
   For use by REGENTS OF THE UNIVERSITY OF COLORADO under license from Dassault Systemes or its subsidiary.



                         The Abaqus Software is a product of:

                           Dassault Systemes SIMULIA Corp.
                           1301 Atwood Avenue, Suite 101W
                              Johnston, RI 02919, USA
 


                   The Abaqus Software is available only under license
                   from Dassault Systemes or its subsidiary and may be
                   used or reproduced only in accordance with the terms
                   of such license.
 
                          On machine DESKTOP-KVJB0RN 
                          you are authorized to run
                          Abaqus/Standard until 31-Dec-2022

                          Your site id is: 200000000001323 


 
                    For assistance or any other information you may
                    obtain contact information for your local office
                    from the world wide web at:

                      http://www.3ds.com/products/simulia/locations/

 
                * * * * * * * * * * * * * * * * * * * * * * * * * * * * * * 
                *                                                         * 
                *                   *****************                     * 
                *                   *  N O T I C E  *                     * 
                *                   *****************                     * 
                *                                                         * 
                *                                                         * 
                *                     Abaqus 2021.HF9                     * 
                *                                                         * 
                *          BUILD ID: 2021_09_20-13.06.07 168298           * 
                *                                                         * 
                *                                                         * 
                *  Please make sure you are using                         * 
                *  release Abaqus 2021.HF9 manuals                        * 
                *  plus the notes accompanying this release.              * 
                *                                                         * 
                *                                                         * 
                *                                                         * 
                *                                                         * 
                *                                                         * 
                *   This program may not be used for commercial purposes  * 
                *           without payment of a commercial fee.          * 
                *                                                         * 
                * * * * * * * * * * * * * * * * * * * * * * * * * * * * * * 


 



     PROCESSING PART, INSTANCE, AND ASSEMBLY INFORMATION
   *******************************************************


     END PROCESSING PART, INSTANCE, AND ASSEMBLY INFORMATION
   ***********************************************************

  *initial condition,type=enrichment



     OPTIONS BEING PROCESSED
   ***************************


  *Heading
               Model mode I crack propagation with XFEM                                                                                                                                                                                                                                                                                                                                                                                                                                                                                   
  *Node
  *Element, type=CPE4
  *Nset, nset=_PickedSet11, generate
  *Elset, elset=_PickedSet11, generate
  *Elset, elset=one
  *Nset, nset=_PickedSet4
  *Nset, nset=_PickedSet5
  *Elset, elset=_PickedSet5
  *Nset, nset=_PickedSet6
  *Elset, elset=_PickedSet6
  *nset,nset=disp
  *amplitude,name=amp1
  *Material, name=Material-1
  *Elastic
  *DAMAGE INITIATION,CRITERION=MAXPS
  *initial condition,type=enrichment
  *Solid Section, elset=_PickedSet11, material=Material-1
  *Solid Section, elset=_PickedSet11, material=Material-1
  *enrichment,elset=_PickedSet11,interaction=lower,type=propagation crack, name=abc
  *surface interaction,name=lower
  *surface behavior
  *enrichment,elset=_PickedSet11,interaction=lower,type=propagation crack, name=abc
  *surface interaction,name=lower
  *surface behavior
  *FRACTURE CRITERION,TYPE=VCCT,MIXED MODE BEHAVIOR=POWER,VISCOSITY=1.0E-5
  *initial condition,type=enrichment
  *surface interaction,name=lower
  *Boundary
  *Boundary,amp=amp1
  *Boundary,amp=amp1
  *Boundary
  *Boundary,amp=amp1
  *Boundary,amp=amp1
  *equation
  *enrichment,elset=_PickedSet11,interaction=lower,type=propagation crack, name=abc
  *surface interaction,name=lower
  *enrichment,elset=_PickedSet11,interaction=lower,type=propagation crack, name=abc
  *Output, field
  *output,history
  *element output
  *element output,elset=one
  *initial condition,type=enrichment
  *Output, field
  *output,history
  *element output
  *element output,elset=one
  *initial condition,type=enrichment
  *initial condition,type=enrichment
  *Output, field
  *output,history
  *element output
  *element output,elset=one

 ***NOTE: MPCS (EXTERNAL or INTERNAL, including those generated from rigid body 
          definitions), KINEMATIC COUPLINGS, AND/OR EQUATIONS WILL ACTIVATE 
          ADDITIONAL DEGREES OF FREEDOM
  *Step, name=Step-1, nlgeom=YES, inc=10000
  *Output, field
  *output,history
  *Step, name=Step-1, nlgeom=YES, inc=10000
  *Step, name=Step-1, nlgeom=YES, inc=10000
  *Static
  *CONTROLS,PARAMETERS=TIME INCREMENTATION
  *Boundary,amp=amp1
  *Boundary,amp=amp1
  *Output, field
  *element output
  *node output
  *output,history
  *node output,nset=disp
  *element output,elset=one
  *End Step
  *Boundary
  *Step, name=Step-1, nlgeom=YES, inc=10000
  *Static
  *Boundary,amp=amp1
  *Boundary,amp=amp1
  *End Step
1

   Abaqus 2021.HF9                                  Date 15-Mar-2022   Time 17:08:08
   For use by REGENTS OF THE UNIVERSITY OF COLORADO under license from Dassault Systemes or its subsidiary.

          Model mode I crack propagation with XFEM                                   


                              E L E M E N T   D E F I N I T I O N S

       NUMBER   TYPE    PROPERTY    NODES FORMING ELEMENT
                        REFERENCE

          1   CPE4          1          1        13       249       106
          2   CPE4          1         13        14       250       249
          3   CPE4          1         14        15       251       250
          4   CPE4          1         15        16       252       251
          5   CPE4          1         16        17       253       252
          6   CPE4          1         17        18       254       253
          7   CPE4          1         18        19       255       254
          8   CPE4          1         19        20       256       255
          9   CPE4          1         20        21       257       256
         10   CPE4          1         21        22       258       257
         11   CPE4          1         22        23       259       258
         12   CPE4          1         23        24       260       259
         13   CPE4          1         24        25       261       260
         14   CPE4          1         25        26       262       261
         15   CPE4          1         26        27       263       262
         16   CPE4          1         27        28       264       263
         17   CPE4          1         28        29       265       264
         18   CPE4          1         29        30       266       265
         19   CPE4          1         30        31       267       266
         20   CPE4          1         31        32       268       267
         21   CPE4          1         32        33       269       268
         22   CPE4          1         33        34       270       269
         23   CPE4          1         34        35       271       270
         24   CPE4          1         35        36       272       271
         25   CPE4          1         36        37       273       272
         26   CPE4          1         37        38       274       273
         27   CPE4          1         38        39       275       274
         28   CPE4          1         39        40       276       275
         29   CPE4          1         40        41       277       276
         30   CPE4          1         41        42       278       277
         31   CPE4          1         42        43       279       278
         32   CPE4          1         43        44       280       279
         33   CPE4          1         44        45       281       280
         34   CPE4          1         45        46       282       281
         35   CPE4          1         46        47       283       282
         36   CPE4          1         47        48       284       283
         37   CPE4          1         48        49       285       284
         38   CPE4          1         49        50       286       285
         39   CPE4          1         50        51       287       286
         40   CPE4          1         51         2        52       287
         41   CPE4          1        106       249       288       105
         42   CPE4          1        249       250       289       288
         43   CPE4          1        250       251       290       289
         44   CPE4          1        251       252       291       290
         45   CPE4          1        252       253       292       291
         46   CPE4          1        253       254       293       292
         47   CPE4          1        254       255       294       293
         48   CPE4          1        255       256       295       294
         49   CPE4          1        256       257       296       295
         50   CPE4          1        257       258       297       296
         51   CPE4          1        258       259       298       297
         52   CPE4          1        259       260       299       298
         53   CPE4          1        260       261       300       299
         54   CPE4          1        261       262       301       300
         55   CPE4          1        262       263       302       301
         56   CPE4          1        263       264       303       302
         57   CPE4          1        264       265       304       303
         58   CPE4          1        265       266       305       304
         59   CPE4          1        266       267       306       305
         60   CPE4          1        267       268       307       306
         61   CPE4          1        268       269       308       307
         62   CPE4          1        269       270       309       308
         63   CPE4          1        270       271       310       309
         64   CPE4          1        271       272       311       310
         65   CPE4          1        272       273       312       311
         66   CPE4          1        273       274       313       312
         67   CPE4          1        274       275       314       313
         68   CPE4          1        275       276       315       314
         69   CPE4          1        276       277       316       315
         70   CPE4          1        277       278       317       316
         71   CPE4          1        278       279       318       317
         72   CPE4          1        279       280       319       318
         73   CPE4          1        280       281       320       319
         74   CPE4          1        281       282       321       320
         75   CPE4          1        282       283       322       321
         76   CPE4          1        283       284       323       322
         77   CPE4          1        284       285       324       323
         78   CPE4          1        285       286       325       324
         79   CPE4          1        286       287       326       325
         80   CPE4          1        287        52        53       326
         81   CPE4          1        105       288       327       104
         82   CPE4          1        288       289       328       327
         83   CPE4          1        289       290       329       328
         84   CPE4          1        290       291       330       329
         85   CPE4          1        291       292       331       330
         86   CPE4          1        292       293       332       331
         87   CPE4          1        293       294       333       332
         88   CPE4          1        294       295       334       333
         89   CPE4          1        295       296       335       334
         90   CPE4          1        296       297       336       335
         91   CPE4          1        297       298       337       336
         92   CPE4          1        298       299       338       337
         93   CPE4          1        299       300       339       338
         94   CPE4          1        300       301       340       339
         95   CPE4          1        301       302       341       340
         96   CPE4          1        302       303       342       341
         97   CPE4          1        303       304       343       342
         98   CPE4          1        304       305       344       343
         99   CPE4          1        305       306       345       344
        100   CPE4          1        306       307       346       345
        101   CPE4          1        307       308       347       346
        102   CPE4          1        308       309       348       347
        103   CPE4          1        309       310       349       348
        104   CPE4          1        310       311       350       349
        105   CPE4          1        311       312       351       350
        106   CPE4          1        312       313       352       351
        107   CPE4          1        313       314       353       352
        108   CPE4          1        314       315       354       353
        109   CPE4          1        315       316       355       354
        110   CPE4          1        316       317       356       355
        111   CPE4          1        317       318       357       356
        112   CPE4          1        318       319       358       357
        113   CPE4          1        319       320       359       358
        114   CPE4          1        320       321       360       359
        115   CPE4          1        321       322       361       360
        116   CPE4          1        322       323       362       361
        117   CPE4          1        323       324       363       362
        118   CPE4          1        324       325       364       363
        119   CPE4          1        325       326       365       364
        120   CPE4          1        326        53        54       365
        121   CPE4          1        104       327       366       103
        122   CPE4          1        327       328       367       366
        123   CPE4          1        328       329       368       367
        124   CPE4          1        329       330       369       368
        125   CPE4          1        330       331       370       369
        126   CPE4          1        331       332       371       370
        127   CPE4          1        332       333       372       371
        128   CPE4          1        333       334       373       372
        129   CPE4          1        334       335       374       373
        130   CPE4          1        335       336       375       374
        131   CPE4          1        336       337       376       375
        132   CPE4          1        337       338       377       376
        133   CPE4          1        338       339       378       377
        134   CPE4          1        339       340       379       378
        135   CPE4          1        340       341       380       379
        136   CPE4          1        341       342       381       380
        137   CPE4          1        342       343       382       381
        138   CPE4          1        343       344       383       382
        139   CPE4          1        344       345       384       383
        140   CPE4          1        345       346       385       384
        141   CPE4          1        346       347       386       385
        142   CPE4          1        347       348       387       386
        143   CPE4          1        348       349       388       387
        144   CPE4          1        349       350       389       388
        145   CPE4          1        350       351       390       389
        146   CPE4          1        351       352       391       390
        147   CPE4          1        352       353       392       391
        148   CPE4          1        353       354       393       392
        149   CPE4          1        354       355       394       393
        150   CPE4          1        355       356       395       394
        151   CPE4          1        356       357       396       395
        152   CPE4          1        357       358       397       396
        153   CPE4          1        358       359       398       397
        154   CPE4          1        359       360       399       398
        155   CPE4          1        360       361       400       399
        156   CPE4          1        361       362       401       400
        157   CPE4          1        362       363       402       401
        158   CPE4          1        363       364       403       402
        159   CPE4          1        364       365       404       403
        160   CPE4          1        365        54        55       404
        161   CPE4          1        103       366       405       102
        162   CPE4          1        366       367       406       405
        163   CPE4          1        367       368       407       406
        164   CPE4          1        368       369       408       407
        165   CPE4          1        369       370       409       408
        166   CPE4          1        370       371       410       409
        167   CPE4          1        371       372       411       410
        168   CPE4          1        372       373       412       411
        169   CPE4          1        373       374       413       412
        170   CPE4          1        374       375       414       413
        171   CPE4          1        375       376       415       414
        172   CPE4          1        376       377       416       415
        173   CPE4          1        377       378       417       416
        174   CPE4          1        378       379       418       417
        175   CPE4          1        379       380       419       418
        176   CPE4          1        380       381       420       419
        177   CPE4          1        381       382       421       420
        178   CPE4          1        382       383       422       421
        179   CPE4          1        383       384       423       422
        180   CPE4          1        384       385       424       423
        181   CPE4          1        385       386       425       424
        182   CPE4          1        386       387       426       425
        183   CPE4          1        387       388       427       426
        184   CPE4          1        388       389       428       427
        185   CPE4          1        389       390       429       428
        186   CPE4          1        390       391       430       429
        187   CPE4          1        391       392       431       430
        188   CPE4          1        392       393       432       431
        189   CPE4          1        393       394       433       432
        190   CPE4          1        394       395       434       433
        191   CPE4          1        395       396       435       434
        192   CPE4          1        396       397       436       435
        193   CPE4          1        397       398       437       436
        194   CPE4          1        398       399       438       437
        195   CPE4          1        399       400       439       438
        196   CPE4          1        400       401       440       439
        197   CPE4          1        401       402       441       440
        198   CPE4          1        402       403       442       441
        199   CPE4          1        403       404       443       442
        200   CPE4          1        404        55        56       443
        201   CPE4          1        102       405       444       101
        202   CPE4          1        405       406       445       444
        203   CPE4          1        406       407       446       445
        204   CPE4          1        407       408       447       446
        205   CPE4          1        408       409       448       447
        206   CPE4          1        409       410       449       448
        207   CPE4          1        410       411       450       449
        208   CPE4          1        411       412       451       450
        209   CPE4          1        412       413       452       451
        210   CPE4          1        413       414       453       452
        211   CPE4          1        414       415       454       453
        212   CPE4          1        415       416       455       454
        213   CPE4          1        416       417       456       455
        214   CPE4          1        417       418       457       456
        215   CPE4          1        418       419       458       457
        216   CPE4          1        419       420       459       458
        217   CPE4          1        420       421       460       459
        218   CPE4          1        421       422       461       460
        219   CPE4          1        422       423       462       461
        220   CPE4          1        423       424       463       462
        221   CPE4          1        424       425       464       463
        222   CPE4          1        425       426       465       464
        223   CPE4          1        426       427       466       465
        224   CPE4          1        427       428       467       466
        225   CPE4          1        428       429       468       467
        226   CPE4          1        429       430       469       468
        227   CPE4          1        430       431       470       469
        228   CPE4          1        431       432       471       470
        229   CPE4          1        432       433       472       471
        230   CPE4          1        433       434       473       472
        231   CPE4          1        434       435       474       473
        232   CPE4          1        435       436       475       474
        233   CPE4          1        436       437       476       475
        234   CPE4          1        437       438       477       476
        235   CPE4          1        438       439       478       477
        236   CPE4          1        439       440       479       478
        237   CPE4          1        440       441       480       479
        238   CPE4          1        441       442       481       480
        239   CPE4          1        442       443       482       481
        240   CPE4          1        443        56        57       482
        241   CPE4          1        101       444       483       100
        242   CPE4          1        444       445       484       483
        243   CPE4          1        445       446       485       484
        244   CPE4          1        446       447       486       485
        245   CPE4          1        447       448       487       486
        246   CPE4          1        448       449       488       487
        247   CPE4          1        449       450       489       488
        248   CPE4          1        450       451       490       489
        249   CPE4          1        451       452       491       490
        250   CPE4          1        452       453       492       491
        251   CPE4          1        453       454       493       492
        252   CPE4          1        454       455       494       493
        253   CPE4          1        455       456       495       494
        254   CPE4          1        456       457       496       495
        255   CPE4          1        457       458       497       496
        256   CPE4          1        458       459       498       497
        257   CPE4          1        459       460       499       498
        258   CPE4          1        460       461       500       499
        259   CPE4          1        461       462       501       500
        260   CPE4          1        462       463       502       501
        261   CPE4          1        463       464       503       502
        262   CPE4          1        464       465       504       503
        263   CPE4          1        465       466       505       504
        264   CPE4          1        466       467       506       505
        265   CPE4          1        467       468       507       506
        266   CPE4          1        468       469       508       507
        267   CPE4          1        469       470       509       508
        268   CPE4          1        470       471       510       509
        269   CPE4          1        471       472       511       510
        270   CPE4          1        472       473       512       511
        271   CPE4          1        473       474       513       512
        272   CPE4          1        474       475       514       513
        273   CPE4          1        475       476       515       514
        274   CPE4          1        476       477       516       515
        275   CPE4          1        477       478       517       516
        276   CPE4          1        478       479       518       517
        277   CPE4          1        479       480       519       518
        278   CPE4          1        480       481       520       519
        279   CPE4          1        481       482       521       520
        280   CPE4          1        482        57        58       521
        281   CPE4          1        100       483       522        99
        282   CPE4          1        483       484       523       522
        283   CPE4          1        484       485       524       523
        284   CPE4          1        485       486       525       524
        285   CPE4          1        486       487       526       525
        286   CPE4          1        487       488       527       526
        287   CPE4          1        488       489       528       527
        288   CPE4          1        489       490       529       528
        289   CPE4          1        490       491       530       529
        290   CPE4          1        491       492       531       530
        291   CPE4          1        492       493       532       531
        292   CPE4          1        493       494       533       532
        293   CPE4          1        494       495       534       533
        294   CPE4          1        495       496       535       534
        295   CPE4          1        496       497       536       535
        296   CPE4          1        497       498       537       536
        297   CPE4          1        498       499       538       537
        298   CPE4          1        499       500       539       538
        299   CPE4          1        500       501       540       539
        300   CPE4          1        501       502       541       540
        301   CPE4          1        502       503       542       541
        302   CPE4          1        503       504       543       542
        303   CPE4          1        504       505       544       543
        304   CPE4          1        505       506       545       544
        305   CPE4          1        506       507       546       545
        306   CPE4          1        507       508       547       546
        307   CPE4          1        508       509       548       547
        308   CPE4          1        509       510       549       548
        309   CPE4          1        510       511       550       549
        310   CPE4          1        511       512       551       550
        311   CPE4          1        512       513       552       551
        312   CPE4          1        513       514       553       552
        313   CPE4          1        514       515       554       553
        314   CPE4          1        515       516       555       554
        315   CPE4          1        516       517       556       555
        316   CPE4          1        517       518       557       556
        317   CPE4          1        518       519       558       557
        318   CPE4          1        519       520       559       558
        319   CPE4          1        520       521       560       559
        320   CPE4          1        521        58        59       560
        321   CPE4          1         99       522        98         4
        322   CPE4          1        522       523        97        98
        323   CPE4          1        523       524        96        97
        324   CPE4          1        524       525        95        96
        325   CPE4          1        525       526        94        95
        326   CPE4          1        526       527        93        94
        327   CPE4          1        527       528        92        93
        328   CPE4          1        528       529        91        92
        329   CPE4          1        529       530        90        91
        330   CPE4          1        530       531        89        90
        331   CPE4          1        531       532        88        89
        332   CPE4          1        532       533        87        88
        333   CPE4          1        533       534        86        87
        334   CPE4          1        534       535        85        86
        335   CPE4          1        535       536        84        85
        336   CPE4          1        536       537        83        84
        337   CPE4          1        537       538        82        83
        338   CPE4          1        538       539        81        82
        339   CPE4          1        539       540        80        81
        340   CPE4          1        540       541        79        80
        341   CPE4          1        541       542        78        79
        342   CPE4          1        542       543        77        78
        343   CPE4          1        543       544        76        77
        344   CPE4          1        544       545        75        76
        345   CPE4          1        545       546        74        75
        346   CPE4          1        546       547        73        74
        347   CPE4          1        547       548        72        73
        348   CPE4          1        548       549        71        72
        349   CPE4          1        549       550        70        71
        350   CPE4          1        550       551        69        70
        351   CPE4          1        551       552        68        69
        352   CPE4          1        552       553        67        68
        353   CPE4          1        553       554        66        67
        354   CPE4          1        554       555        65        66
        355   CPE4          1        555       556        64        65
        356   CPE4          1        556       557        63        64
        357   CPE4          1        557       558        62        63
        358   CPE4          1        558       559        61        62
        359   CPE4          1        559       560        60        61
        360   CPE4          1        560        59         3        60
        361   CPE4          1          5       107       561       126
        362   CPE4          1        107       108       562       561
        363   CPE4          1        108         2       109       562
        364   CPE4          1        126       561       563       125
        365   CPE4          1        561       562       564       563
        366   CPE4          1        562       109       110       564
        367   CPE4          1        125       563       565       124
        368   CPE4          1        563       564       566       565
        369   CPE4          1        564       110       111       566
        370   CPE4          1        124       565       567       123
        371   CPE4          1        565       566       568       567
        372   CPE4          1        566       111       112       568
        373   CPE4          1        123       567       569       122
        374   CPE4          1        567       568       570       569
        375   CPE4          1        568       112       113       570
        376   CPE4          1        122       569       571       121
        377   CPE4          1        569       570       572       571
        378   CPE4          1        570       113       114       572
        379   CPE4          1        121       571       573       120
        380   CPE4          1        571       572       574       573
        381   CPE4          1        572       114       115       574
        382   CPE4          1        120       573       575       119
        383   CPE4          1        573       574       576       575
        384   CPE4          1        574       115       116       576
        385   CPE4          1        119       575       118         7
        386   CPE4          1        575       576       117       118
        387   CPE4          1        576       116         6       117
        388   CPE4          1          2       108       577        52
        389   CPE4          1        108       107       578       577
        390   CPE4          1        107         5       127       578
        391   CPE4          1         52       577       579        53
        392   CPE4          1        577       578       580       579
        393   CPE4          1        578       127       128       580
        394   CPE4          1         53       579       581        54
        395   CPE4          1        579       580       582       581
        396   CPE4          1        580       128       129       582
        397   CPE4          1         54       581       583        55
        398   CPE4          1        581       582       584       583
        399   CPE4          1        582       129       130       584
        400   CPE4          1         55       583       585        56
        401   CPE4          1        583       584       586       585
        402   CPE4          1        584       130       131       586
        403   CPE4          1         56       585       587        57
        404   CPE4          1        585       586       588       587
        405   CPE4          1        586       131       132       588
        406   CPE4          1         57       587       589        58
        407   CPE4          1        587       588       590       589
        408   CPE4          1        588       132       133       590
        409   CPE4          1         58       589       591        59
        410   CPE4          1        589       590       592       591
        411   CPE4          1        590       133       134       592
        412   CPE4          1         59       591       136         3
        413   CPE4          1        591       592       135       136
        414   CPE4          1        592       134         8       135
        415   CPE4          1          2        51       593       109
        416   CPE4          1         51        50       594       593
        417   CPE4          1         50        49       595       594
        418   CPE4          1         49        48       596       595
        419   CPE4          1         48        47       597       596
        420   CPE4          1         47        46       598       597
        421   CPE4          1         46        45       599       598
        422   CPE4          1         45        44       600       599
        423   CPE4          1         44        43       601       600
        424   CPE4          1         43        42       602       601
        425   CPE4          1         42        41       603       602
        426   CPE4          1         41        40       604       603
        427   CPE4          1         40        39       605       604
        428   CPE4          1         39        38       606       605
        429   CPE4          1         38        37       607       606
        430   CPE4          1         37        36       608       607
        431   CPE4          1         36        35       609       608
        432   CPE4          1         35        34       610       609
        433   CPE4          1         34        33       611       610
        434   CPE4          1         33        32       612       611
        435   CPE4          1         32        31       613       612
        436   CPE4          1         31        30       614       613
        437   CPE4          1         30        29       615       614
        438   CPE4          1         29        28       616       615
        439   CPE4          1         28        27       617       616
        440   CPE4          1         27        26       618       617
        441   CPE4          1         26        25       619       618
        442   CPE4          1         25        24       620       619
        443   CPE4          1         24        23       621       620
        444   CPE4          1         23        22       622       621
        445   CPE4          1         22        21       623       622
        446   CPE4          1         21        20       624       623
        447   CPE4          1         20        19       625       624
        448   CPE4          1         19        18       626       625
        449   CPE4          1         18        17       627       626
        450   CPE4          1         17        16       628       627
        451   CPE4          1         16        15       629       628
        452   CPE4          1         15        14       630       629
        453   CPE4          1         14        13       631       630
        454   CPE4          1         13         1       137       631
        455   CPE4          1        109       593       632       110
        456   CPE4          1        593       594       633       632
        457   CPE4          1        594       595       634       633
        458   CPE4          1        595       596       635       634
        459   CPE4          1        596       597       636       635
        460   CPE4          1        597       598       637       636
        461   CPE4          1        598       599       638       637
        462   CPE4          1        599       600       639       638
        463   CPE4          1        600       601       640       639
        464   CPE4          1        601       602       641       640
        465   CPE4          1        602       603       642       641
        466   CPE4          1        603       604       643       642
        467   CPE4          1        604       605       644       643
        468   CPE4          1        605       606       645       644
        469   CPE4          1        606       607       646       645
        470   CPE4          1        607       608       647       646
        471   CPE4          1        608       609       648       647
        472   CPE4          1        609       610       649       648
        473   CPE4          1        610       611       650       649
        474   CPE4          1        611       612       651       650
        475   CPE4          1        612       613       652       651
        476   CPE4          1        613       614       653       652
        477   CPE4          1        614       615       654       653
        478   CPE4          1        615       616       655       654
        479   CPE4          1        616       617       656       655
        480   CPE4          1        617       618       657       656
        481   CPE4          1        618       619       658       657
        482   CPE4          1        619       620       659       658
        483   CPE4          1        620       621       660       659
        484   CPE4          1        621       622       661       660
        485   CPE4          1        622       623       662       661
        486   CPE4          1        623       624       663       662
        487   CPE4          1        624       625       664       663
        488   CPE4          1        625       626       665       664
        489   CPE4          1        626       627       666       665
        490   CPE4          1        627       628       667       666
        491   CPE4          1        628       629       668       667
        492   CPE4          1        629       630       669       668
        493   CPE4          1        630       631       670       669
        494   CPE4          1        631       137       138       670
        495   CPE4          1        110       632       671       111
        496   CPE4          1        632       633       672       671
        497   CPE4          1        633       634       673       672
        498   CPE4          1        634       635       674       673
        499   CPE4          1        635       636       675       674
        500   CPE4          1        636       637       676       675
        501   CPE4          1        637       638       677       676
        502   CPE4          1        638       639       678       677
        503   CPE4          1        639       640       679       678
        504   CPE4          1        640       641       680       679
        505   CPE4          1        641       642       681       680
        506   CPE4          1        642       643       682       681
        507   CPE4          1        643       644       683       682
        508   CPE4          1        644       645       684       683
        509   CPE4          1        645       646       685       684
        510   CPE4          1        646       647       686       685
        511   CPE4          1        647       648       687       686
        512   CPE4          1        648       649       688       687
        513   CPE4          1        649       650       689       688
        514   CPE4          1        650       651       690       689
        515   CPE4          1        651       652       691       690
        516   CPE4          1        652       653       692       691
        517   CPE4          1        653       654       693       692
        518   CPE4          1        654       655       694       693
        519   CPE4          1        655       656       695       694
        520   CPE4          1        656       657       696       695
        521   CPE4          1        657       658       697       696
        522   CPE4          1        658       659       698       697
        523   CPE4          1        659       660       699       698
        524   CPE4          1        660       661       700       699
        525   CPE4          1        661       662       701       700
        526   CPE4          1        662       663       702       701
        527   CPE4          1        663       664       703       702
        528   CPE4          1        664       665       704       703
        529   CPE4          1        665       666       705       704
        530   CPE4          1        666       667       706       705
        531   CPE4          1        667       668       707       706
        532   CPE4          1        668       669       708       707
        533   CPE4          1        669       670       709       708
        534   CPE4          1        670       138       139       709
        535   CPE4          1        111       671       710       112
        536   CPE4          1        671       672       711       710
        537   CPE4          1        672       673       712       711
        538   CPE4          1        673       674       713       712
        539   CPE4          1        674       675       714       713
        540   CPE4          1        675       676       715       714
        541   CPE4          1        676       677       716       715
        542   CPE4          1        677       678       717       716
        543   CPE4          1        678       679       718       717
        544   CPE4          1        679       680       719       718
        545   CPE4          1        680       681       720       719
        546   CPE4          1        681       682       721       720
        547   CPE4          1        682       683       722       721
        548   CPE4          1        683       684       723       722
        549   CPE4          1        684       685       724       723
        550   CPE4          1        685       686       725       724
        551   CPE4          1        686       687       726       725
        552   CPE4          1        687       688       727       726
        553   CPE4          1        688       689       728       727
        554   CPE4          1        689       690       729       728
        555   CPE4          1        690       691       730       729
        556   CPE4          1        691       692       731       730
        557   CPE4          1        692       693       732       731
        558   CPE4          1        693       694       733       732
        559   CPE4          1        694       695       734       733
        560   CPE4          1        695       696       735       734
        561   CPE4          1        696       697       736       735
        562   CPE4          1        697       698       737       736
        563   CPE4          1        698       699       738       737
        564   CPE4          1        699       700       739       738
        565   CPE4          1        700       701       740       739
        566   CPE4          1        701       702       741       740
        567   CPE4          1        702       703       742       741
        568   CPE4          1        703       704       743       742
        569   CPE4          1        704       705       744       743
        570   CPE4          1        705       706       745       744
        571   CPE4          1        706       707       746       745
        572   CPE4          1        707       708       747       746
        573   CPE4          1        708       709       748       747
        574   CPE4          1        709       139       140       748
        575   CPE4          1        112       710       749       113
        576   CPE4          1        710       711       750       749
        577   CPE4          1        711       712       751       750
        578   CPE4          1        712       713       752       751
        579   CPE4          1        713       714       753       752
        580   CPE4          1        714       715       754       753
        581   CPE4          1        715       716       755       754
        582   CPE4          1        716       717       756       755
        583   CPE4          1        717       718       757       756
        584   CPE4          1        718       719       758       757
        585   CPE4          1        719       720       759       758
        586   CPE4          1        720       721       760       759
        587   CPE4          1        721       722       761       760
        588   CPE4          1        722       723       762       761
        589   CPE4          1        723       724       763       762
        590   CPE4          1        724       725       764       763
        591   CPE4          1        725       726       765       764
        592   CPE4          1        726       727       766       765
        593   CPE4          1        727       728       767       766
        594   CPE4          1        728       729       768       767
        595   CPE4          1        729       730       769       768
        596   CPE4          1        730       731       770       769
        597   CPE4          1        731       732       771       770
        598   CPE4          1        732       733       772       771
        599   CPE4          1        733       734       773       772
        600   CPE4          1        734       735       774       773
        601   CPE4          1        735       736       775       774
        602   CPE4          1        736       737       776       775
        603   CPE4          1        737       738       777       776
        604   CPE4          1        738       739       778       777
        605   CPE4          1        739       740       779       778
        606   CPE4          1        740       741       780       779
        607   CPE4          1        741       742       781       780
        608   CPE4          1        742       743       782       781
        609   CPE4          1        743       744       783       782
        610   CPE4          1        744       745       784       783
        611   CPE4          1        745       746       785       784
        612   CPE4          1        746       747       786       785
        613   CPE4          1        747       748       787       786
        614   CPE4          1        748       140       141       787
        615   CPE4          1        113       749       788       114
        616   CPE4          1        749       750       789       788
        617   CPE4          1        750       751       790       789
        618   CPE4          1        751       752       791       790
        619   CPE4          1        752       753       792       791
        620   CPE4          1        753       754       793       792
        621   CPE4          1        754       755       794       793
        622   CPE4          1        755       756       795       794
        623   CPE4          1        756       757       796       795
        624   CPE4          1        757       758       797       796
        625   CPE4          1        758       759       798       797
        626   CPE4          1        759       760       799       798
        627   CPE4          1        760       761       800       799
        628   CPE4          1        761       762       801       800
        629   CPE4          1        762       763       802       801
        630   CPE4          1        763       764       803       802
        631   CPE4          1        764       765       804       803
        632   CPE4          1        765       766       805       804
        633   CPE4          1        766       767       806       805
        634   CPE4          1        767       768       807       806
        635   CPE4          1        768       769       808       807
        636   CPE4          1        769       770       809       808
        637   CPE4          1        770       771       810       809
        638   CPE4          1        771       772       811       810
        639   CPE4          1        772       773       812       811
        640   CPE4          1        773       774       813       812
        641   CPE4          1        774       775       814       813
        642   CPE4          1        775       776       815       814
        643   CPE4          1        776       777       816       815
        644   CPE4          1        777       778       817       816
        645   CPE4          1        778       779       818       817
        646   CPE4          1        779       780       819       818
        647   CPE4          1        780       781       820       819
        648   CPE4          1        781       782       821       820
        649   CPE4          1        782       783       822       821
        650   CPE4          1        783       784       823       822
        651   CPE4          1        784       785       824       823
        652   CPE4          1        785       786       825       824
        653   CPE4          1        786       787       826       825
        654   CPE4          1        787       141       142       826
        655   CPE4          1        114       788       827       115
        656   CPE4          1        788       789       828       827
        657   CPE4          1        789       790       829       828
        658   CPE4          1        790       791       830       829
        659   CPE4          1        791       792       831       830
        660   CPE4          1        792       793       832       831
        661   CPE4          1        793       794       833       832
        662   CPE4          1        794       795       834       833
        663   CPE4          1        795       796       835       834
        664   CPE4          1        796       797       836       835
        665   CPE4          1        797       798       837       836
        666   CPE4          1        798       799       838       837
        667   CPE4          1        799       800       839       838
        668   CPE4          1        800       801       840       839
        669   CPE4          1        801       802       841       840
        670   CPE4          1        802       803       842       841
        671   CPE4          1        803       804       843       842
        672   CPE4          1        804       805       844       843
        673   CPE4          1        805       806       845       844
        674   CPE4          1        806       807       846       845
        675   CPE4          1        807       808       847       846
        676   CPE4          1        808       809       848       847
        677   CPE4          1        809       810       849       848
        678   CPE4          1        810       811       850       849
        679   CPE4          1        811       812       851       850
        680   CPE4          1        812       813       852       851
        681   CPE4          1        813       814       853       852
        682   CPE4          1        814       815       854       853
        683   CPE4          1        815       816       855       854
        684   CPE4          1        816       817       856       855
        685   CPE4          1        817       818       857       856
        686   CPE4          1        818       819       858       857
        687   CPE4          1        819       820       859       858
        688   CPE4          1        820       821       860       859
        689   CPE4          1        821       822       861       860
        690   CPE4          1        822       823       862       861
        691   CPE4          1        823       824       863       862
        692   CPE4          1        824       825       864       863
        693   CPE4          1        825       826       865       864
        694   CPE4          1        826       142       143       865
        695   CPE4          1        115       827       866       116
        696   CPE4          1        827       828       867       866
        697   CPE4          1        828       829       868       867
        698   CPE4          1        829       830       869       868
        699   CPE4          1        830       831       870       869
        700   CPE4          1        831       832       871       870
        701   CPE4          1        832       833       872       871
        702   CPE4          1        833       834       873       872
        703   CPE4          1        834       835       874       873
        704   CPE4          1        835       836       875       874
        705   CPE4          1        836       837       876       875
        706   CPE4          1        837       838       877       876
        707   CPE4          1        838       839       878       877
        708   CPE4          1        839       840       879       878
        709   CPE4          1        840       841       880       879
        710   CPE4          1        841       842       881       880
        711   CPE4          1        842       843       882       881
        712   CPE4          1        843       844       883       882
        713   CPE4          1        844       845       884       883
        714   CPE4          1        845       846       885       884
        715   CPE4          1        846       847       886       885
        716   CPE4          1        847       848       887       886
        717   CPE4          1        848       849       888       887
        718   CPE4          1        849       850       889       888
        719   CPE4          1        850       851       890       889
        720   CPE4          1        851       852       891       890
        721   CPE4          1        852       853       892       891
        722   CPE4          1        853       854       893       892
        723   CPE4          1        854       855       894       893
        724   CPE4          1        855       856       895       894
        725   CPE4          1        856       857       896       895
        726   CPE4          1        857       858       897       896
        727   CPE4          1        858       859       898       897
        728   CPE4          1        859       860       899       898
        729   CPE4          1        860       861       900       899
        730   CPE4          1        861       862       901       900
        731   CPE4          1        862       863       902       901
        732   CPE4          1        863       864       903       902
        733   CPE4          1        864       865       904       903
        734   CPE4          1        865       143       144       904
        735   CPE4          1        116       866       183         6
        736   CPE4          1        866       867       182       183
        737   CPE4          1        867       868       181       182
        738   CPE4          1        868       869       180       181
        739   CPE4          1        869       870       179       180
        740   CPE4          1        870       871       178       179
        741   CPE4          1        871       872       177       178
        742   CPE4          1        872       873       176       177
        743   CPE4          1        873       874       175       176
        744   CPE4          1        874       875       174       175
        745   CPE4          1        875       876       173       174
        746   CPE4          1        876       877       172       173
        747   CPE4          1        877       878       171       172
        748   CPE4          1        878       879       170       171
        749   CPE4          1        879       880       169       170
        750   CPE4          1        880       881       168       169
        751   CPE4          1        881       882       167       168
        752   CPE4          1        882       883       166       167
        753   CPE4          1        883       884       165       166
        754   CPE4          1        884       885       164       165
        755   CPE4          1        885       886       163       164
        756   CPE4          1        886       887       162       163
        757   CPE4          1        887       888       161       162
        758   CPE4          1        888       889       160       161
        759   CPE4          1        889       890       159       160
        760   CPE4          1        890       891       158       159
        761   CPE4          1        891       892       157       158
        762   CPE4          1        892       893       156       157
        763   CPE4          1        893       894       155       156
        764   CPE4          1        894       895       154       155
        765   CPE4          1        895       896       153       154
        766   CPE4          1        896       897       152       153
        767   CPE4          1        897       898       151       152
        768   CPE4          1        898       899       150       151
        769   CPE4          1        899       900       149       150
        770   CPE4          1        900       901       148       149
        771   CPE4          1        901       902       147       148
        772   CPE4          1        902       903       146       147
        773   CPE4          1        903       904       145       146
        774   CPE4          1        904       144         9       145
        775   CPE4          1          4        98       905       238
        776   CPE4          1         98        97       906       905
        777   CPE4          1         97        96       907       906
        778   CPE4          1         96        95       908       907
        779   CPE4          1         95        94       909       908
        780   CPE4          1         94        93       910       909
        781   CPE4          1         93        92       911       910
        782   CPE4          1         92        91       912       911
        783   CPE4          1         91        90       913       912
        784   CPE4          1         90        89       914       913
        785   CPE4          1         89        88       915       914
        786   CPE4          1         88        87       916       915
        787   CPE4          1         87        86       917       916
        788   CPE4          1         86        85       918       917
        789   CPE4          1         85        84       919       918
        790   CPE4          1         84        83       920       919
        791   CPE4          1         83        82       921       920
        792   CPE4          1         82        81       922       921
        793   CPE4          1         81        80       923       922
        794   CPE4          1         80        79       924       923
        795   CPE4          1         79        78       925       924
        796   CPE4          1         78        77       926       925
        797   CPE4          1         77        76       927       926
        798   CPE4          1         76        75       928       927
        799   CPE4          1         75        74       929       928
        800   CPE4          1         74        73       930       929
        801   CPE4          1         73        72       931       930
        802   CPE4          1         72        71       932       931
        803   CPE4          1         71        70       933       932
        804   CPE4          1         70        69       934       933
        805   CPE4          1         69        68       935       934
        806   CPE4          1         68        67       936       935
        807   CPE4          1         67        66       937       936
        808   CPE4          1         66        65       938       937
        809   CPE4          1         65        64       939       938
        810   CPE4          1         64        63       940       939
        811   CPE4          1         63        62       941       940
        812   CPE4          1         62        61       942       941
        813   CPE4          1         61        60       943       942
        814   CPE4          1         60         3       184       943
        815   CPE4          1        238       905       944       237
        816   CPE4          1        905       906       945       944
        817   CPE4          1        906       907       946       945
        818   CPE4          1        907       908       947       946
        819   CPE4          1        908       909       948       947
        820   CPE4          1        909       910       949       948
        821   CPE4          1        910       911       950       949
        822   CPE4          1        911       912       951       950
        823   CPE4          1        912       913       952       951
        824   CPE4          1        913       914       953       952
        825   CPE4          1        914       915       954       953
        826   CPE4          1        915       916       955       954
        827   CPE4          1        916       917       956       955
        828   CPE4          1        917       918       957       956
        829   CPE4          1        918       919       958       957
        830   CPE4          1        919       920       959       958
        831   CPE4          1        920       921       960       959
        832   CPE4          1        921       922       961       960
        833   CPE4          1        922       923       962       961
        834   CPE4          1        923       924       963       962
        835   CPE4          1        924       925       964       963
        836   CPE4          1        925       926       965       964
        837   CPE4          1        926       927       966       965
        838   CPE4          1        927       928       967       966
        839   CPE4          1        928       929       968       967
        840   CPE4          1        929       930       969       968
        841   CPE4          1        930       931       970       969
        842   CPE4          1        931       932       971       970
        843   CPE4          1        932       933       972       971
        844   CPE4          1        933       934       973       972
        845   CPE4          1        934       935       974       973
        846   CPE4          1        935       936       975       974
        847   CPE4          1        936       937       976       975
        848   CPE4          1        937       938       977       976
        849   CPE4          1        938       939       978       977
        850   CPE4          1        939       940       979       978
        851   CPE4          1        940       941       980       979
        852   CPE4          1        941       942       981       980
        853   CPE4          1        942       943       982       981
        854   CPE4          1        943       184       185       982
        855   CPE4          1        237       944       983       236
        856   CPE4          1        944       945       984       983
        857   CPE4          1        945       946       985       984
        858   CPE4          1        946       947       986       985
        859   CPE4          1        947       948       987       986
        860   CPE4          1        948       949       988       987
        861   CPE4          1        949       950       989       988
        862   CPE4          1        950       951       990       989
        863   CPE4          1        951       952       991       990
        864   CPE4          1        952       953       992       991
        865   CPE4          1        953       954       993       992
        866   CPE4          1        954       955       994       993
        867   CPE4          1        955       956       995       994
        868   CPE4          1        956       957       996       995
        869   CPE4          1        957       958       997       996
        870   CPE4          1        958       959       998       997
        871   CPE4          1        959       960       999       998
        872   CPE4          1        960       961      1000       999
        873   CPE4          1        961       962      1001      1000
        874   CPE4          1        962       963      1002      1001
        875   CPE4          1        963       964      1003      1002
        876   CPE4          1        964       965      1004      1003
        877   CPE4          1        965       966      1005      1004
        878   CPE4          1        966       967      1006      1005
        879   CPE4          1        967       968      1007      1006
        880   CPE4          1        968       969      1008      1007
        881   CPE4          1        969       970      1009      1008
        882   CPE4          1        970       971      1010      1009
        883   CPE4          1        971       972      1011      1010
        884   CPE4          1        972       973      1012      1011
        885   CPE4          1        973       974      1013      1012
        886   CPE4          1        974       975      1014      1013
        887   CPE4          1        975       976      1015      1014
        888   CPE4          1        976       977      1016      1015
        889   CPE4          1        977       978      1017      1016
        890   CPE4          1        978       979      1018      1017
        891   CPE4          1        979       980      1019      1018
        892   CPE4          1        980       981      1020      1019
        893   CPE4          1        981       982      1021      1020
        894   CPE4          1        982       185       186      1021
        895   CPE4          1        236       983      1022       235
        896   CPE4          1        983       984      1023      1022
        897   CPE4          1        984       985      1024      1023
        898   CPE4          1        985       986      1025      1024
        899   CPE4          1        986       987      1026      1025
        900   CPE4          1        987       988      1027      1026
        901   CPE4          1        988       989      1028      1027
        902   CPE4          1        989       990      1029      1028
        903   CPE4          1        990       991      1030      1029
        904   CPE4          1        991       992      1031      1030
        905   CPE4          1        992       993      1032      1031
        906   CPE4          1        993       994      1033      1032
        907   CPE4          1        994       995      1034      1033
        908   CPE4          1        995       996      1035      1034
        909   CPE4          1        996       997      1036      1035
        910   CPE4          1        997       998      1037      1036
        911   CPE4          1        998       999      1038      1037
        912   CPE4          1        999      1000      1039      1038
        913   CPE4          1       1000      1001      1040      1039
        914   CPE4          1       1001      1002      1041      1040
        915   CPE4          1       1002      1003      1042      1041
        916   CPE4          1       1003      1004      1043      1042
        917   CPE4          1       1004      1005      1044      1043
        918   CPE4          1       1005      1006      1045      1044
        919   CPE4          1       1006      1007      1046      1045
        920   CPE4          1       1007      1008      1047      1046
        921   CPE4          1       1008      1009      1048      1047
        922   CPE4          1       1009      1010      1049      1048
        923   CPE4          1       1010      1011      1050      1049
        924   CPE4          1       1011      1012      1051      1050
        925   CPE4          1       1012      1013      1052      1051
        926   CPE4          1       1013      1014      1053      1052
        927   CPE4          1       1014      1015      1054      1053
        928   CPE4          1       1015      1016      1055      1054
        929   CPE4          1       1016      1017      1056      1055
        930   CPE4          1       1017      1018      1057      1056
        931   CPE4          1       1018      1019      1058      1057
        932   CPE4          1       1019      1020      1059      1058
        933   CPE4          1       1020      1021      1060      1059
        934   CPE4          1       1021       186       187      1060
        935   CPE4          1        235      1022      1061       234
        936   CPE4          1       1022      1023      1062      1061
        937   CPE4          1       1023      1024      1063      1062
        938   CPE4          1       1024      1025      1064      1063
        939   CPE4          1       1025      1026      1065      1064
        940   CPE4          1       1026      1027      1066      1065
        941   CPE4          1       1027      1028      1067      1066
        942   CPE4          1       1028      1029      1068      1067
        943   CPE4          1       1029      1030      1069      1068
        944   CPE4          1       1030      1031      1070      1069
        945   CPE4          1       1031      1032      1071      1070
        946   CPE4          1       1032      1033      1072      1071
        947   CPE4          1       1033      1034      1073      1072
        948   CPE4          1       1034      1035      1074      1073
        949   CPE4          1       1035      1036      1075      1074
        950   CPE4          1       1036      1037      1076      1075
        951   CPE4          1       1037      1038      1077      1076
        952   CPE4          1       1038      1039      1078      1077
        953   CPE4          1       1039      1040      1079      1078
        954   CPE4          1       1040      1041      1080      1079
        955   CPE4          1       1041      1042      1081      1080
        956   CPE4          1       1042      1043      1082      1081
        957   CPE4          1       1043      1044      1083      1082
        958   CPE4          1       1044      1045      1084      1083
        959   CPE4          1       1045      1046      1085      1084
        960   CPE4          1       1046      1047      1086      1085
        961   CPE4          1       1047      1048      1087      1086
        962   CPE4          1       1048      1049      1088      1087
        963   CPE4          1       1049      1050      1089      1088
        964   CPE4          1       1050      1051      1090      1089
        965   CPE4          1       1051      1052      1091      1090
        966   CPE4          1       1052      1053      1092      1091
        967   CPE4          1       1053      1054      1093      1092
        968   CPE4          1       1054      1055      1094      1093
        969   CPE4          1       1055      1056      1095      1094
        970   CPE4          1       1056      1057      1096      1095
        971   CPE4          1       1057      1058      1097      1096
        972   CPE4          1       1058      1059      1098      1097
        973   CPE4          1       1059      1060      1099      1098
        974   CPE4          1       1060       187       188      1099
        975   CPE4          1        234      1061      1100       233
        976   CPE4          1       1061      1062      1101      1100
        977   CPE4          1       1062      1063      1102      1101
        978   CPE4          1       1063      1064      1103      1102
        979   CPE4          1       1064      1065      1104      1103
        980   CPE4          1       1065      1066      1105      1104
        981   CPE4          1       1066      1067      1106      1105
        982   CPE4          1       1067      1068      1107      1106
        983   CPE4          1       1068      1069      1108      1107
        984   CPE4          1       1069      1070      1109      1108
        985   CPE4          1       1070      1071      1110      1109
        986   CPE4          1       1071      1072      1111      1110
        987   CPE4          1       1072      1073      1112      1111
        988   CPE4          1       1073      1074      1113      1112
        989   CPE4          1       1074      1075      1114      1113
        990   CPE4          1       1075      1076      1115      1114
        991   CPE4          1       1076      1077      1116      1115
        992   CPE4          1       1077      1078      1117      1116
        993   CPE4          1       1078      1079      1118      1117
        994   CPE4          1       1079      1080      1119      1118
        995   CPE4          1       1080      1081      1120      1119
        996   CPE4          1       1081      1082      1121      1120
        997   CPE4          1       1082      1083      1122      1121
        998   CPE4          1       1083      1084      1123      1122
        999   CPE4          1       1084      1085      1124      1123
       1000   CPE4          1       1085      1086      1125      1124
       1001   CPE4          1       1086      1087      1126      1125
       1002   CPE4          1       1087      1088      1127      1126
       1003   CPE4          1       1088      1089      1128      1127
       1004   CPE4          1       1089      1090      1129      1128
       1005   CPE4          1       1090      1091      1130      1129
       1006   CPE4          1       1091      1092      1131      1130
       1007   CPE4          1       1092      1093      1132      1131
       1008   CPE4          1       1093      1094      1133      1132
       1009   CPE4          1       1094      1095      1134      1133
       1010   CPE4          1       1095      1096      1135      1134
       1011   CPE4          1       1096      1097      1136      1135
       1012   CPE4          1       1097      1098      1137      1136
       1013   CPE4          1       1098      1099      1138      1137
       1014   CPE4          1       1099       188       189      1138
       1015   CPE4          1        233      1100      1139       232
[...]

  EQUATION  NUMBER        NODE  DOF  MULTIPLIER          NODE  DOF  MULTIPLIER          NODE  DOF  MULTIPLIER
           OF TERMS

      1       2             6   2    1.000             9999   2   -1.000    

      2       2             7   2    1.000             9999   2   -1.000    

      3       2             9   2    1.000             9999   2   -1.000    

      4       2           117   2    1.000             9999   2   -1.000    

      5       2           118   2    1.000             9999   2   -1.000    

      6       2           145   2    1.000             9999   2   -1.000    

      7       2           146   2    1.000             9999   2   -1.000    

      8       2           147   2    1.000             9999   2   -1.000    

      9       2           148   2    1.000             9999   2   -1.000    

     10       2           149   2    1.000             9999   2   -1.000    

     11       2           150   2    1.000             9999   2   -1.000    

     12       2           151   2    1.000             9999   2   -1.000    

     13       2           152   2    1.000             9999   2   -1.000    

     14       2           153   2    1.000             9999   2   -1.000    

     15       2           154   2    1.000             9999   2   -1.000    

     16       2           155   2    1.000             9999   2   -1.000    

     17       2           156   2    1.000             9999   2   -1.000    

     18       2           157   2    1.000             9999   2   -1.000    

     19       2           158   2    1.000             9999   2   -1.000    

     20       2           159   2    1.000             9999   2   -1.000    

     21       2           160   2    1.000             9999   2   -1.000    

     22       2           161   2    1.000             9999   2   -1.000    

     23       2           162   2    1.000             9999   2   -1.000    

     24       2           163   2    1.000             9999   2   -1.000    

     25       2           164   2    1.000             9999   2   -1.000    

     26       2           165   2    1.000             9999   2   -1.000    

     27       2           166   2    1.000             9999   2   -1.000    

     28       2           167   2    1.000             9999   2   -1.000    

     29       2           168   2    1.000             9999   2   -1.000    

     30       2           169   2    1.000             9999   2   -1.000    

     31       2           170   2    1.000             9999   2   -1.000    

     32       2           171   2    1.000             9999   2   -1.000    

     33       2           172   2    1.000             9999   2   -1.000    

     34       2           173   2    1.000             9999   2   -1.000    

     35       2           174   2    1.000             9999   2   -1.000    

     36       2           175   2    1.000             9999   2   -1.000    

     37       2           176   2    1.000             9999   2   -1.000    

     38       2           177   2    1.000             9999   2   -1.000    

     39       2           178   2    1.000             9999   2   -1.000    

     40       2           179   2    1.000             9999   2   -1.000    

     41       2           180   2    1.000             9999   2   -1.000    

     42       2           181   2    1.000             9999   2   -1.000    

     43       2           182   2    1.000             9999   2   -1.000    

     44       2           183   2    1.000             9999   2   -1.000    


                         I N I T I A L   L E V E L   S E T

          ELEMENT ID     FEATURE NAME        NODE ID        PHI     PSI

            400          ABC                   1        1.00         0.00    
            400          ABC                   2        1.00        -1.00    
            400          ABC                   3       -1.00        -1.00    
            400          ABC                   4       -1.00         0.00    
            401          ABC                   1        1.00        -1.00    
            401          ABC                   2        1.00        -2.00    
            401          ABC                   3       -1.00        -2.00    
            401          ABC                   4       -1.00        -1.00    
            402          ABC                   1        1.00        -2.00    
            402          ABC                   2        1.00        -3.00    
            402          ABC                   3       -1.00        -3.00    
            402          ABC                   4       -1.00        -2.00    
1

   Abaqus 2021.HF9                                  Date 15-Mar-2022   Time 17:08:08
   For use by REGENTS OF THE UNIVERSITY OF COLORADO under license from Dassault Systemes or its subsidiary.

          Model mode I crack propagation with XFEM                                   


                        S T E P       1     S T A T I C   A N A L Y S I S


                                                                                          

     THE RATE DEPENDENCY WILL BE CONSIDERED IN THIS STEP

     AUTOMATIC TIME CONTROL WITH -
          A SUGGESTED INITIAL TIME INCREMENT OF                1.000E-02
          AND A TOTAL TIME PERIOD OF                           0.660    
          THE MINIMUM TIME INCREMENT ALLOWED IS                1.000E-09
          THE MAXIMUM TIME INCREMENT ALLOWED IS                1.000E-02

 CONVERGENCE TOLERANCE PARAMETERS FOR FORCE    
     CRITERION FOR RESIDUAL FORCE     FOR A NONLINEAR PROBLEM          5.000E-03
     CRITERION FOR DISP.    CORRECTION IN A NONLINEAR PROBLEM          1.000E-02
     INITIAL VALUE OF TIME AVERAGE FORCE                               1.000E-02
     AVERAGE FORCE     IS TIME AVERAGE FORCE    
     ALTERNATE CRIT. FOR RESIDUAL FORCE     FOR A NONLINEAR PROBLEM    2.000E-02
     CRITERION FOR ZERO FORCE     RELATIVE TO TIME AVRG. FORCE         1.000E-05
     CRITERION FOR RESIDUAL FORCE     WHEN THERE IS ZERO FLUX          1.000E-05
     CRITERION FOR DISP.    CORRECTION WHEN THERE IS ZERO FLUX         1.000E-03
     CRITERION FOR RESIDUAL FORCE     FOR A LINEAR INCREMENT           1.000E-08
     FIELD CONVERSION RATIO                                             1.00    
     CRITERION FOR ZERO FORCE     REL. TO TIME AVRG. MAX. FORCE        1.000E-05
     CRITERION FOR ZERO DISP.    RELATIVE TO CHARACTERISTIC LENGTH     1.000E-08

     VOLUMETRIC STRAIN COMPATIBILITY TOLERANCE FOR HYBRID SOLIDS       1.000E-05
     AXIAL STRAIN COMPATIBILITY TOLERANCE FOR HYBRID BEAMS             1.000E-05
     TRANS. SHEAR STRAIN COMPATIBILITY TOLERANCE FOR HYBRID BEAMS      1.000E-05
     SOFT CONTACT CONSTRAINT COMPATIBILITY TOLERANCE FOR P>P0          5.000E-03
     SOFT CONTACT CONSTRAINT COMPATIBILITY TOLERANCE FOR P=0.0         0.100    
     CONTACT FORCE ERROR TOLERANCE FOR CONVERT SDI=YES                 1.00    
     DISPLACEMENT COMPATIBILITY TOLERANCE FOR DCOUP ELEMENTS           1.000E-05
     ROTATION COMPATIBILITY TOLERANCE FOR DCOUP ELEMENTS               1.000E-05

 EQUILIBRIUM WILL BE CHECKED FOR SEVERE DISCONTINUITY ITERATIONS

 TIME INCREMENTATION CONTROL PARAMETERS:
     FIRST EQUILIBRIUM ITERATION FOR CONSECUTIVE DIVERGENCE CHECK              4
     EQUILIBRIUM ITERATION AT WHICH LOG. CONVERGENCE RATE CHECK BEGINS         8
     EQUILIBRIUM ITERATION AFTER WHICH ALTERNATE RESIDUAL IS USED              9
     MAXIMUM EQUILIBRIUM ITERATIONS ALLOWED                                   16
     EQUILIBRIUM ITERATION COUNT FOR CUT-BACK IN NEXT INCREMENT               10
     MAXIMUM EQUILIB. ITERS IN TWO INCREMENTS FOR TIME INCREMENT INCREASE      4
     MAXIMUM ITERATIONS FOR SEVERE DISCONTINUITIES                            50
 *** MAXIMUM ATTEMPTS ALLOWED IN AN INCREMENT                                 20
     MAXIMUM DISCON. ITERS IN TWO INCREMENTS FOR TIME INCREMENT INCREASE      50
     MAXIMUM CONTACT AUGMENTATIONS FOR *SURFACE BEHAVIOR,AUGMENTED LAGRANGE   50
     CUT-BACK FACTOR AFTER DIVERGENCE                                 0.2500    
     CUT-BACK FACTOR FOR TOO SLOW CONVERGENCE                         0.5000    
     CUT-BACK FACTOR AFTER TOO MANY EQUILIBRIUM ITERATIONS            0.7500    
     CUT-BACK FACTOR AFTER TOO MANY SEVERE DISCONTINUITY ITERATIONS   0.2500    
     CUT-BACK FACTOR AFTER PROBLEMS IN ELEMENT ASSEMBLY               0.2500    
     INCREASE FACTOR AFTER TWO INCREMENTS THAT CONVERGE QUICKLY        1.500    
     MAX. TIME INCREMENT INCREASE FACTOR ALLOWED                       1.500    
     MAX. TIME INCREMENT INCREASE FACTOR ALLOWED (DYNAMICS)            1.250    
     MAX. TIME INCREMENT INCREASE FACTOR ALLOWED (DIFFUSION)           2.000    
     MINIMUM TIME INCREMENT RATIO FOR EXTRAPOLATION TO OCCUR          0.1000    
     MAX. RATIO OF TIME INCREMENT TO STABILITY LIMIT                   1.000    
     FRACTION OF STABILITY LIMIT FOR NEW TIME INCREMENT               0.9500    
     TIME INCREMENT INCREASE FACTOR BEFORE A TIME POINT                1.000    

 *** INDICATES USE OF NON-DEFAULT TIME INCREMENTATION CONTROL PARAMETER
     SELECTED WITH *CONTROLS
     GLOBAL STABILIZATION CONTROL IS NOT USED

     THE MAXIMUM NUMBER OF INCREMENTS IN THIS STEP IS                   10000

          LARGE DISPLACEMENT THEORY WILL BE USED

     LINEAR EXTRAPOLATION WILL BE USED

     CHARACTERISTIC ELEMENT LENGTH     9.044E-02

     DETAILS REGARDING ACTUAL SOLUTION WAVEFRONT REQUESTED

     DETAILED OUTPUT OF DIAGNOSTICS TO DATABASE REQUESTED

     PRINT OF INCREMENT NUMBER, TIME, ETC., TO THE MESSAGE FILE EVERY     1  INCREMENTS



                              D A T A B A S E   O U T P U T   G R O U P       1


  THE FOLLOWING  FIELD   OUTPUT WILL BE WRITTEN EVERY        1 INCREMENT(S)



   THE FOLLOWING OUTPUT WILL BE WRITTEN FOR ALL ELEMENTS OF TYPE CPE4.  OUTPUT IS AT THE 
   INTEGRATION POINTS.

          S               



   THE FOLLOWING OUTPUT WILL BE WRITTEN FOR ALL ELEMENTS OF TYPE CPE4.  OUTPUT IS AT THE 
   INTEGRATION POINTS.

          S               



   THE FOLLOWING OUTPUT WILL BE WRITTEN FOR ALL NODES


            U         PHILSM  





   THE FOLLOWING OUTPUT WILL BE WRITTEN FOR ALL NODES


            U       



  END OF DATABASE OUTPUT GROUP    1




                              D A T A B A S E   O U T P U T   G R O U P       2


  THE FOLLOWING HISTORY  OUTPUT WILL BE WRITTEN EVERY        1 INCREMENT(S)



   THE FOLLOWING OUTPUT WILL BE WRITTEN FOR ALL ELEMENTS OF TYPE CPE4 IN ELEMENT SET ONE. OUTPUT IS 
   AT THE INTEGRATION POINTS.

          S11             S22             S33             S12             



   THE FOLLOWING OUTPUT WILL BE WRITTEN FOR NODES IN NODE SET DISP


            RF2       U2      



  END OF DATABASE OUTPUT GROUP    2




                              D A T A B A S E   O U T P U T   G R O U P       3


 ***WARNING: NO OUTPUT VARIABLES ASSOCIATED WITH THIS FIELD OUTPUT GROUP.




                              B O U N D A R Y   C O N D I T I O N S


      NODE      DOF     AMP.    MAGNITUDE                 NODE      DOF     AMP.    MAGNITUDE
                        REF.                                                REF.

           1    1     (RAMP)     0.0000                        4    1     (RAMP)     0.0000               
          10    2     AMP1     -1.00000E-03                   11    2     AMP1     -1.00000E-03           
          12    2     AMP1     -1.00000E-03                  192    2     AMP1     -1.00000E-03           
         193    2     AMP1     -1.00000E-03                  194    2     AMP1     -1.00000E-03           
         195    2     AMP1     -1.00000E-03                  196    2     AMP1     -1.00000E-03           
         197    2     AMP1     -1.00000E-03                  198    2     AMP1     -1.00000E-03           
         199    2     AMP1     -1.00000E-03                  200    2     AMP1     -1.00000E-03           
         201    2     AMP1     -1.00000E-03                  202    2     AMP1     -1.00000E-03           
         203    2     AMP1     -1.00000E-03                  204    2     AMP1     -1.00000E-03           
         205    2     AMP1     -1.00000E-03                  206    2     AMP1     -1.00000E-03           
         207    2     AMP1     -1.00000E-03                  208    2     AMP1     -1.00000E-03           
         209    2     AMP1     -1.00000E-03                  210    2     AMP1     -1.00000E-03           
         211    2     AMP1     -1.00000E-03                  212    2     AMP1     -1.00000E-03           
         213    2     AMP1     -1.00000E-03                  214    2     AMP1     -1.00000E-03           
         215    2     AMP1     -1.00000E-03                  216    2     AMP1     -1.00000E-03           
         217    2     AMP1     -1.00000E-03                  218    2     AMP1     -1.00000E-03           
         219    2     AMP1     -1.00000E-03                  220    2     AMP1     -1.00000E-03           
         221    2     AMP1     -1.00000E-03                  222    2     AMP1     -1.00000E-03           
         223    2     AMP1     -1.00000E-03                  224    2     AMP1     -1.00000E-03           
         225    2     AMP1     -1.00000E-03                  226    2     AMP1     -1.00000E-03           
         227    2     AMP1     -1.00000E-03                  228    2     AMP1     -1.00000E-03           
         229    2     AMP1     -1.00000E-03                  230    2     AMP1     -1.00000E-03           
         247    2     AMP1     -1.00000E-03                  248    2     AMP1     -1.00000E-03           
        9999    2     AMP1      1.00000E-03           

     - (RAMP) OR (STEP) - INDICATE USE OF DEFAULT AMPLITUDES ASSOCIATED WITH THE STEP




                      C O N S T R A I N T    C H E C K S

            PERFORM CONSTRAINT CHECKS:                        YES
            AUTOMATIC MODEL CHANGES:                          YES
            CONSTRAINT CHECKS FREQUENCY:                             1
            TERMINATE ANALYSIS IF OVERCONSTRAINTS ARE FOUND:  NO             



                            P R O B L E M   S I Z E


          NUMBER OF ELEMENTS IS                                  1161
          NUMBER OF NODES IS                                     2465
          NUMBER OF NODES DEFINED BY THE USER                    2465
          TOTAL NUMBER OF VARIABLES IN THE MODEL                 4929
          (DEGREES OF FREEDOM PLUS MAX NO. OF ANY LAGRANGE MULTIPLIER
           VARIABLES. INCLUDE *PRINT,SOLVE=YES TO GET THE ACTUAL NUMBER.)



                              END OF USER INPUT PROCESSING



     JOB TIME SUMMARY
       USER TIME (SEC)      =     0.20    
       SYSTEM TIME (SEC)    =     0.10    
       TOTAL CPU TIME (SEC) =     0.30    
       WALLCLOCK TIME (SEC) =            1
1

   Abaqus 2021.HF9                                  Date 15-Mar-2022   Time 17:08:09
   For use by REGENTS OF THE UNIVERSITY OF COLORADO under license from Dassault Systemes or its subsidiary.

          Model mode I crack propagation with XFEM                                             STEP    1  INCREMENT    1
                                                                                          TIME COMPLETED IN THIS STEP   0.00    


                        S T E P       1     S T A T I C   A N A L Y S I S


                                                                                          

     AUTOMATIC TIME CONTROL WITH -
          A SUGGESTED INITIAL TIME INCREMENT OF                1.000E-02
          AND A TOTAL TIME PERIOD OF                           0.660    
          THE MINIMUM TIME INCREMENT ALLOWED IS                1.000E-09
          THE MAXIMUM TIME INCREMENT ALLOWED IS                1.000E-02

     LINEAR EQUATION SOLVER TYPE         DIRECT SPARSE

          LARGE DISPLACEMENT THEORY WILL BE USED
  
                   M E M O R Y   E S T I M A T E
  
 PROCESS      FLOATING PT       MINIMUM MEMORY        MEMORY TO
              OPERATIONS           REQUIRED          MINIMIZE I/O
             PER ITERATION           (MB)               (MB)
  
     1          5.79E+06               18                 27
  
 NOTE:
      (1) SINCE ABAQUS DOES NOT PRE-ALLOCATE MEMORY AND ONLY ALLOCATES MEMORY AS NEEDED DURING THE ANALYSIS,
          THE MEMORY REQUIREMENT PRINTED HERE CAN ONLY BE VIEWED AS A GENERAL GUIDELINE BASED ON THE BEST
          KNOWLEDGE AVAILABLE AT THE BEGINNING OF A STEP BEFORE THE SOLUTION PROCESS HAS BEGUN.
      (2) THE ESTIMATE IS NORMALLY UPDATED AT THE BEGINNING OF EVERY STEP. IT IS THE MAXIMUM VALUE OF THE
          ESTIMATE FROM THE CURRENT STEP TO THE LAST STEP OF THE ANALYSIS, WITH UNSYMMETRIC SOLUTION TAKEN
          INTO ACCOUNT IF APPLICABLE. 
      (3) SINCE THE ESTIMATE IS BASED ON THE ACTIVE DEGREES OF FREEDOM IN THE FIRST ITERATION OF THE 
          CURRENT STEP, THE MEMORY ESTIMATE MIGHT BE SIGNIFICANTLY DIFFERENT THAN ACTUAL USAGE FOR 
          PROBLEMS WITH SUBSTANTIAL CHANGES IN ACTIVE DEGREES OF FREEDOM BETWEEN STEPS (OR EVEN WITHIN
          THE SAME STEP). EXAMPLES ARE: PROBLEMS WITH SIGNIFICANT CONTACT CHANGES, PROBLEMS WITH MODEL
          CHANGE, PROBLEMS WITH BOTH STATIC STEP AND STEADY STATE DYNAMIC PROCEDURES WHERE ACOUSTIC 
          ELEMENTS WILL ONLY BE ACTIVATED IN THE STEADY STATE DYNAMIC STEPS.
      (4) FOR MULTI-PROCESS EXECUTION, THE ESTIMATED VALUE OF FLOATING POINT OPERATIONS FOR EACH PROCESS
          IS BASED ON AN INITIAL SCHEDULING OF OPERATIONS AND MIGHT NOT REFLECT THE ACTUAL FLOATING 
          POINT OPERATIONS COMPLETED ON EACH PROCESS. OPERATIONS ARE DYNAMICALLY BALANCED DURING EXECUTION, 
          SO THE ACTUAL BALANCE OF OPERATIONS BETWEEN PROCESSES IS EXPECTED TO BE BETTER THAN THE ESTIMATE
          PRINTED HERE.
      (5) THE UPPER LIMIT OF MEMORY THAT CAN BE ALLOCATED BY ABAQUS WILL IN GENERAL DEPEND ON THE VALUE OF
          THE "MEMORY" PARAMETER AND THE AMOUNT OF PHYSICAL MEMORY AVAILABLE ON THE MACHINE. PLEASE SEE
          THE "ABAQUS ANALYSIS USER'S MANUAL" FOR MORE DETAILS. THE ACTUAL USAGE OF MEMORY AND OF DISK
          SPACE FOR SCRATCH DATA WILL DEPEND ON THIS UPPER LIMIT AS WELL AS THE MEMORY REQUIRED TO MINIMIZE
          I/O. IF THE MEMORY UPPER LIMIT IS GREATER THAN THE MEMORY REQUIRED TO MINIMIZE I/O, THEN THE ACTUAL
          MEMORY USAGE WILL BE CLOSE TO THE ESTIMATED "MEMORY TO MINIMIZE I/O" VALUE, AND THE SCRATCH DISK
          USAGE WILL BE CLOSE-TO-ZERO; OTHERWISE, THE ACTUAL MEMORY USED WILL BE CLOSE TO THE PREVIOUSLY
          MENTIONED MEMORY LIMIT, AND THE SCRATCH DISK USAGE WILL BE ROUGHLY PROPORTIONAL TO THE DIFFERENCE
          BETWEEN THE ESTIMATED "MEMORY TO MINIMIZE I/O" AND THE MEMORY UPPER LIMIT. HOWEVER ACCURATE
          ESTIMATE OF THE SCRATCH DISK SPACE IS NOT POSSIBLE.
      (6) USING "*RESTART, WRITE" CAN GENERATE A LARGE AMOUNT OF DATA WRITTEN IN THE WORK DIRECTORY.


          THE ANALYSIS HAS BEEN COMPLETED



                              ANALYSIS COMPLETE
                              WITH      1 WARNING MESSAGES ON THE DAT FILE
                              AND       6 WARNING MESSAGES ON THE MSG FILE
                                        6 WARNINGS ARE FOR NEGATIVE EIGENVALUES



     JOB TIME SUMMARY
       USER TIME (SEC)      =      49.    
       SYSTEM TIME (SEC)    =      4.3    
       TOTAL CPU TIME (SEC) =      53.    
       WALLCLOCK TIME (SEC) =           54
