 Abaqus/Standard 2021.HF9                  DATE 15-Mar-2022 TIME 17:08:09
 SUMMARY OF JOB INFORMATION:
 STEP  INC ATT SEVERE EQUIL TOTAL  TOTAL      STEP       INC OF       DOF    IF
               DISCON ITERS ITERS  TIME/    TIME/LPF    TIME/LPF    MONITOR RIKS
               ITERS               FREQ
   1     1   1     0     2     2  0.0100     0.0100     0.01000   
   1     2   1     0     1     1  0.0200     0.0200     0.01000   
   1     3   1     0     1     1  0.0300     0.0300     0.01000   
   1     4   1     0     1     1  0.0400     0.0400     0.01000   
   1     5   1     0     1     1  0.0500     0.0500     0.01000   
   1     6   1     0     1     1  0.0600     0.0600     0.01000   
   1     7   1     0     1     1  0.0700     0.0700     0.01000   
   1     8   1     0     1     1  0.0800     0.0800     0.01000   
   1     9   1     0     1     1  0.0900     0.0900     0.01000   
   1    10   1     0     1     1  0.100      0.100      0.01000   
   1    11   1     0     1     1  0.110      0.110      0.01000   
   1    12   1     0     1     1  0.120      0.120      0.01000   
   1    13   1     0     1     1  0.130      0.130      0.01000   
   1    14   1     0     1     1  0.140      0.140      0.01000   
   1    15   1     0     1     1  0.150      0.150      0.01000   
   1    16   1     0     1     1  0.160      0.160      0.01000   
   1    17   1     0     1     1  0.170      0.170      0.01000   
   1    18   1     0     1     1  0.180      0.180      0.01000   
   1    19   1     0     1     1  0.190      0.190      0.01000   
   1    20   1     0     1     1  0.200      0.200      0.01000   
   1    21   1     0     1     1  0.210      0.210      0.01000   
   1    22   1     0     1     1  0.220      0.220      0.01000   
   1    23   1     0     1     1  0.230      0.230      0.01000   
   1    24   1     0     1     1  0.240      0.240      0.01000   
   1    25   1     0     1     1  0.250      0.250      0.01000   
   1    26   1     0     1     1  0.260      0.260      0.01000   
   1    27   1     0     1     1  0.270      0.270      0.01000   
   1    28   1     0     1     1  0.280      0.280      0.01000   
   1    29   1     0     1     1  0.290      0.290      0.01000   
   1    30   1     0     1     1  0.300      0.300      0.01000   
   1    31   1     0     1     1  0.310      0.310      0.01000   
   1    32   1     0     1     1  0.320      0.320      0.01000   
   1    33   1     0     1     1  0.330      0.330      0.01000   
   1    34   1     0     1     1  0.340      0.340      0.01000   
   1    35   1     0     1     1  0.350      0.350      0.01000   
   1    36   1     0     1     1  0.360      0.360      0.01000   
   1    37   1     0     1     1  0.370      0.370      0.01000   
   1    38   1     0     1     1  0.380      0.380      0.01000   
   1    39   1     0     1     1  0.390      0.390      0.01000   
   1    40   1     0     1     1  0.400      0.400      0.01000   
   1    41   1     0     1     1  0.410      0.410      0.01000   
   1    42   1     0     1     1  0.420      0.420      0.01000   
   1    43   1     0     1     1  0.430      0.430      0.01000   
   1    44   1     0     1     1  0.440      0.440      0.01000   
   1    45   1     0     1     1  0.450      0.450      0.01000   
   1    46   1     0     1     1  0.460      0.460      0.01000   
   1    47   1     0     1     1  0.470      0.470      0.01000   
   1    48   1     0     1     1  0.480      0.480      0.01000   
   1    49   1     0     1     1  0.490      0.490      0.01000   
   1    50   1     0     1     1  0.500      0.500      0.01000   
   1    51   1     0     1     1  0.510      0.510      0.01000   
   1    52   1     0     1     1  0.520      0.520      0.01000   
   1    53   1     0     1     1  0.530      0.530      0.01000   
   1    54   1     0     1     1  0.540      0.540      0.01000   
   1    55   1     0     1     1  0.550      0.550      0.01000   
   1    56   1     0     1     1  0.560      0.560      0.01000   
   1    57   1     0     1     1  0.570      0.570      0.01000   
   1    58   1     0     1     1  0.580      0.580      0.01000   
   1    59   1     0     1     1  0.590      0.590      0.01000   
   1    60   1     0     1     1  0.600      0.600      0.01000   
   1    61   1     0     1     1  0.610      0.610      0.01000   
   1    62   1     0     1     1  0.620      0.620      0.01000   
   1    63   1     0     1     1  0.630      0.630      0.01000   
   1    64   1     0     1     1  0.640      0.640      0.01000   
   1    65   1     0     2     2  0.650      0.650      0.01000   
   1    66   1U    0     1     1  0.650      0.650      0.01000   
   1    66   2     0     1     1  0.651      0.651      0.001233  
   1    67   1U    0     1     1  0.651      0.651      0.001849  
   1    67   2     0     1     1  0.651      0.651      5.914e-05 
   1    68   1     0     1     1  0.651      0.651      8.871e-05 
   1    69   1U    0     1     1  0.651      0.651      0.0001331 
   1    69   2U    0     1     1  0.651      0.651      9.963e-05 
   1    69   3     0     1     1  0.651      0.651      3.107e-05 
   1    70   1U    0     1     1  0.651      0.651      4.661e-05 
   1    70   2U    0     1     1  0.651      0.651      3.560e-05 
   1    70   3     0     1     1  0.651      0.651      1.343e-05 
   1    71   1     0     1     1  0.651      0.651      2.014e-05 
   1    72   1     0     2     2  0.651      0.651      3.022e-05 
   1    73   1     0     1     1  0.652      0.652      4.532e-05 
   1    74   1     0     1     1  0.652      0.652      6.798e-05 
   1    75   1     0     1     1  0.652      0.652      0.0001020 
   1    76   1     0     1     1  0.652      0.652      0.0001530 
   1    77   1U    0     1     1  0.652      0.652      0.0002294 
   1    77   2     0     1     1  0.652      0.652      3.483e-05 
   1    78   1     0     1     1  0.652      0.652      5.224e-05 
   1    79   1U    0     1     1  0.652      0.652      7.837e-05 
   1    79   2U    0     1     1  0.652      0.652      5.379e-05 
   1    79   3U    0     1     1  0.652      0.652      1.846e-05 
   1    79   4     0     1     1  0.652      0.652      4.398e-06 
   1    80   1     0     1     1  0.652      0.652      6.597e-06 
   1    81   1     0     1     1  0.652      0.652      9.896e-06 
   1    82   1     0     2     2  0.652      0.652      1.484e-05 
   1    83   1     0     1     1  0.652      0.652      2.227e-05 
   1    84   1     0     1     1  0.652      0.652      3.340e-05 
   1    85   1     0     1     1  0.652      0.652      5.010e-05 
   1    86   1     0     1     1  0.652      0.652      7.515e-05 
   1    87   1     0     1     1  0.652      0.652      0.0001127 
   1    88   1U    0     1     1  0.652      0.652      0.0001691 
   1    88   2     0     1     1  0.652      0.652      3.276e-05 
   1    89   1U    0     1     1  0.652      0.652      4.914e-05 
   1    89   2     0     1     1  0.652      0.652      3.126e-05 
   1    90   1     0     1     1  0.652      0.652      4.689e-05 
   1    91   1     0     2     2  0.652      0.652      7.034e-05 
   1    92   1     0     1     1  0.653      0.653      0.0001055 
   1    93   1     0     1     1  0.653      0.653      0.0001583 
   1    94   1U    0     1     1  0.653      0.653      0.0002374 
   1    94   2U    0     1     1  0.653      0.653      0.0001511 
   1    94   3U    0     1     1  0.653      0.653      4.812e-05 
   1    94   4     0     1     1  0.653      0.653      8.032e-06 
   1    95   1     0     1     1  0.653      0.653      1.205e-05 
   1    96   1     0     2     2  0.653      0.653      1.807e-05 
   1    97   1     0     2     2  0.653      0.653      2.711e-05 
   1    98   1     0     1     1  0.653      0.653      4.066e-05 
   1    99   1     0     1     1  0.653      0.653      6.099e-05 
   1   100   1     0     1     1  0.653      0.653      9.149e-05 
   1   101   1U    0     1     1  0.653      0.653      0.0001372 
   1   101   2     0     1     1  0.653      0.653      9.288e-05 
   1   102   1U    0     1     1  0.653      0.653      0.0001393 
   1   102   2U    0     1     1  0.653      0.653      8.715e-05 
   1   102   3U    0     1     1  0.653      0.653      2.726e-05 
   1   102   4     0     1     1  0.653      0.653      5.417e-06 
   1   103   1     0     1     1  0.653      0.653      8.125e-06 
   1   104   1     0     1     1  0.653      0.653      1.219e-05 
   1   105   1     0     2     2  0.653      0.653      1.828e-05 
   1   106   1     0     1     1  0.653      0.653      2.742e-05 
   1   107   1     0     1     1  0.653      0.653      4.113e-05 
   1   108   1     0     1     1  0.653      0.653      6.170e-05 
   1   109   1     0     1     1  0.653      0.653      9.255e-05 
   1   110   1U    0     1     1  0.653      0.653      0.0001388 
   1   110   2     0     1     1  0.653      0.653      4.127e-05 
   1   111   1U    0     1     1  0.653      0.653      6.191e-05 
   1   111   2     0     1     1  0.653      0.653      2.300e-05 
   1   112   1U    0     1     1  0.653      0.653      3.450e-05 
   1   112   2U    0     1     1  0.653      0.653      2.137e-05 
   1   112   3     0     1     1  0.653      0.653      5.699e-06 
   1   113   1     0     2     2  0.653      0.653      8.549e-06 
   1   114   1     0     2     2  0.653      0.653      1.282e-05 
   1   115   1     0     1     1  0.653      0.653      1.923e-05 
   1   116   1     0     1     1  0.653      0.653      2.885e-05 
   1   117   1     0     1     1  0.654      0.654      4.328e-05 
   1   118   1     0     1     1  0.654      0.654      6.492e-05 
   1   119   1     0     1     1  0.654      0.654      9.737e-05 
   1   120   1U    0     1     1  0.654      0.654      0.0001461 
   1   120   2     0     1     1  0.654      0.654      7.924e-06 
   1   121   1     0     1     1  0.654      0.654      1.189e-05 
   1   122   1     0     1     1  0.654      0.654      1.783e-05 
   1   123   1U    0     1     1  0.654      0.654      2.674e-05 
   1   123   2     0     1     1  0.654      0.654      1.710e-05 
   1   124   1     0     1     1  0.654      0.654      2.565e-05 
   1   125   1     0     2     2  0.654      0.654      3.847e-05 
   1   126   1     0     1     1  0.654      0.654      5.771e-05 
   1   127   1     0     1     1  0.654      0.654      8.657e-05 
   1   128   1     0     1     1  0.654      0.654      0.0001299 
   1   129   1U    0     1     1  0.654      0.654      0.0001948 
   1   129   2U    0     1     1  0.654      0.654      0.0001198 
   1   129   3U    0     1     1  0.654      0.654      3.682e-05 
   1   129   4     0     1     1  0.654      0.654      5.724e-06 
   1   130   1     0     1     1  0.654      0.654      8.587e-06 
   1   131   1     0     2     2  0.654      0.654      1.288e-05 
   1   132   1     0     2     2  0.654      0.654      1.932e-05 
   1   133   1     0     1     1  0.654      0.654      2.898e-05 
   1   134   1     0     1     1  0.654      0.654      4.347e-05 
   1   135   1     0     1     1  0.654      0.654      6.520e-05 
   1   136   1     0     1     1  0.654      0.654      9.781e-05 
   1   137   1U    0     1     1  0.654      0.654      0.0001467 
   1   137   2     0     1     1  0.654      0.654      9.183e-06 
   1   138   1     0     1     1  0.654      0.654      1.377e-05 
   1   139   1     0     1     1  0.654      0.654      2.066e-05 
   1   140   1U    0     1     1  0.654      0.654      3.099e-05 
   1   140   2U    0     1     1  0.654      0.654      1.907e-05 
   1   140   3     0     1     1  0.654      0.654      5.748e-06 
   1   141   1     0     2     2  0.654      0.654      8.622e-06 
   1   142   1     0     2     2  0.654      0.654      1.293e-05 
   1   143   1     0     1     1  0.654      0.654      1.940e-05 
   1   144   1     0     1     1  0.654      0.654      2.910e-05 
   1   145   1     0     1     1  0.655      0.655      4.365e-05 
   1   146   1     0     1     1  0.655      0.655      6.547e-05 
   1   147   1     0     1     1  0.655      0.655      9.821e-05 
   1   148   1U    0     1     1  0.655      0.655      0.0001473 
   1   148   2     0     1     1  0.655      0.655      1.998e-06 
   1   149   1     0     1     1  0.655      0.655      2.997e-06 
   1   150   1     0     1     1  0.655      0.655      4.495e-06 
   1   151   1     0     1     1  0.655      0.655      6.743e-06 
   1   152   1     0     1     1  0.655      0.655      1.011e-05 
   1   153   1     0     1     1  0.655      0.655      1.517e-05 
   1   154   1     0     1     1  0.655      0.655      2.276e-05 
   1   155   1     0     2     2  0.655      0.655      3.413e-05 
   1   156   1     0     1     1  0.655      0.655      5.120e-05 
   1   157   1     0     1     1  0.655      0.655      7.680e-05 
   1   158   1     0     1     1  0.655      0.655      0.0001152 
   1   159   1U    0     4     4  0.655      0.655      0.0001728 
   1   159   2     0     1     1  0.655      0.655      4.320e-05 
   1   160   1U    0     1     1  0.655      0.655      6.480e-05 
   1   160   2U    0     1     1  0.655      0.655      3.994e-05 
   1   160   3U    0     1     1  0.655      0.655      1.231e-05 
   1   160   4     0     1     1  0.655      0.655      2.914e-06 
   1   161   1     0     1     1  0.655      0.655      4.372e-06 
   1   162   1     0     1     1  0.655      0.655      6.558e-06 
   1   163   1     0     2     2  0.655      0.655      9.836e-06 
   1   164   1     0     1     1  0.655      0.655      1.475e-05 
   1   165   1     0     1     1  0.655      0.655      2.213e-05 
   1   166   1     0     1     1  0.655      0.655      3.320e-05 
   1   167   1     0     1     1  0.655      0.655      4.980e-05 
   1   168   1     0     1     1  0.655      0.655      7.469e-05 
   1   169   1     0     1     1  0.655      0.655      0.0001120 
   1   170   1     0     2     2  0.656      0.656      0.0001681 
   1   171   1     0     2     2  0.656      0.656      0.0002521 
   1   172   1U    0     1     1  0.656      0.656      0.0003781 
   1   172   2U    0     4     4  0.656      0.656      0.0002330 
   1   172   3U    0     1     1  0.656      0.656      5.824e-05 
   1   172   4     0     1     1  0.656      0.656      1.040e-05 
   1   173   1     0     1     1  0.656      0.656      1.560e-05 
   1   174   1U    0     1     1  0.656      0.656      2.340e-05 
   1   174   2U    0     1     1  0.656      0.656      1.266e-05 
   1   174   3     0     1     1  0.656      0.656      4.807e-06 
   1   175   1     0     1     1  0.656      0.656      7.211e-06 
   1   176   1     0     1     1  0.656      0.656      1.082e-05 
   1   177   1     0     2     2  0.656      0.656      1.623e-05 
   1   178   1     0     1     1  0.656      0.656      2.434e-05 
   1   179   1     0     1     1  0.656      0.656      3.651e-05 
   1   180   1     0     1     1  0.656      0.656      5.476e-05 
   1   181   1     0     1     1  0.656      0.656      8.214e-05 
   1   182   1U    0     1     1  0.656      0.656      0.0001232 
   1   182   2     0     1     1  0.656      0.656      7.296e-05 
   1   183   1U    0     1     1  0.656      0.656      0.0001094 
   1   183   2U    0     1     1  0.656      0.656      6.745e-05 
   1   183   3U    0     1     1  0.656      0.656      2.079e-05 
   1   183   4     0     1     1  0.656      0.656      5.200e-06 
   1   184   1     0     1     1  0.656      0.656      7.801e-06 
   1   185   1     0     2     2  0.656      0.656      1.170e-05 
   1   186   1     0     2     2  0.656      0.656      1.755e-05 
   1   187   1     0     1     1  0.656      0.656      2.633e-05 
   1   188   1     0     1     1  0.656      0.656      3.949e-05 
   1   189   1     0     1     1  0.656      0.656      5.924e-05 
   1   190   1     0     1     1  0.656      0.656      8.885e-05 
   1   191   1U    0     1     1  0.656      0.656      0.0001333 
   1   191   2     0     1     1  0.656      0.656      3.866e-05 
   1   192   1U    0     1     1  0.656      0.656      5.800e-05 
   1   192   2     0     1     1  0.656      0.656      2.104e-05 
   1   193   1     0     1     1  0.656      0.656      3.156e-05 
   1   194   1     0     2     2  0.657      0.657      4.734e-05 
   1   195   1     0     1     1  0.657      0.657      7.100e-05 
   1   196   1     0     1     1  0.657      0.657      0.0001065 
   1   197   1U    0     1     1  0.657      0.657      0.0001598 
   1   197   2     0     1     1  0.657      0.657      2.990e-05 
   1   198   1U    0     1     1  0.657      0.657      4.486e-05 
   1   198   2     0     1     1  0.657      0.657      3.344e-05 
   1   199   1     0     1     1  0.657      0.657      5.016e-05 
   1   200   1     0     2     2  0.657      0.657      7.524e-05 
   1   201   1     0     1     1  0.657      0.657      0.0001129 
   1   202   1U    0     1     1  0.657      0.657      0.0001693 
   1   202   2     0     1     1  0.657      0.657      6.886e-05 
   1   203   1U    0     1     1  0.657      0.657      0.0001033 
   1   203   2U    0     1     1  0.657      0.657      6.330e-05 
   1   203   3     0     1     1  0.657      0.657      1.055e-05 
   1   204   1U    0     1     1  0.657      0.657      1.582e-05 
   1   204   2     0     1     1  0.657      0.657      1.285e-05 
   1   205   1     0     1     1  0.657      0.657      1.927e-05 
   1   206   1     0     2     2  0.657      0.657      2.891e-05 
   1   207   1     0     1     1  0.657      0.657      4.336e-05 
   1   208   1     0     1     1  0.657      0.657      6.504e-05 
   1   209   1     0     1     1  0.657      0.657      9.756e-05 
   1   210   1U    0     1     1  0.657      0.657      0.0001463 
   1   210   2     0     1     1  0.657      0.657      2.322e-05 
   1   211   1     0     1     1  0.657      0.657      3.483e-05 
   1   212   1     0     1     1  0.657      0.657      5.225e-05 
   1   213   1     0     2     2  0.658      0.658      7.837e-05 
   1   214   1     0     1     1  0.658      0.658      0.0001176 
   1   215   1U    0     1     1  0.658      0.658      0.0001763 
   1   215   2     0     1     1  0.658      0.658      4.751e-05 
   1   216   1U    0     1     1  0.658      0.658      7.126e-05 
   1   216   2     0     1     1  0.658      0.658      3.009e-05 
   1   217   1U    0     1     1  0.658      0.658      4.514e-05 
   1   217   2U    0     1     1  0.658      0.658      2.748e-05 
   1   217   3     0     1     1  0.658      0.658      6.671e-06 
   1   218   1     0     1     1  0.658      0.658      1.001e-05 
   1   219   1     0     2     2  0.658      0.658      1.501e-05 
   1   220   1     0     1     1  0.658      0.658      2.251e-05 
   1   221   1     0     1     1  0.658      0.658      3.377e-05 
   1   222   1     0     1     1  0.658      0.658      5.066e-05 
   1   223   1     0     1     1  0.658      0.658      7.598e-05 
   1   224   1U    0     1     1  0.658      0.658      0.0001140 
   1   224   2     0     1     1  0.658      0.658      9.090e-05 
   1   225   1U    0     1     1  0.658      0.658      0.0001363 
   1   225   2U    0     1     1  0.658      0.658      8.263e-05 
   1   225   3U    0     1     1  0.658      0.658      2.504e-05 
   1   225   4     0     1     1  0.658      0.658      4.362e-06 
   1   226   1     0     1     1  0.658      0.658      6.543e-06 
   1   227   1     0     1     1  0.658      0.658      9.815e-06 
   1   228   1     0     2     2  0.658      0.658      1.472e-05 
   1   229   1     0     1     1  0.658      0.658      2.208e-05 
   1   230   1     0     1     1  0.658      0.658      3.312e-05 
   1   231   1     0     1     1  0.658      0.658      4.969e-05 
   1   232   1     0     1     1  0.658      0.658      7.453e-05 
   1   233   1U    0     1     1  0.658      0.658      0.0001118 
   1   233   2     0     1     1  0.658      0.658      7.095e-05 
   1   234   1U    0     1     1  0.658      0.658      0.0001064 
   1   234   2U    0     1     1  0.658      0.658      6.421e-05 
   1   234   3U    0     1     1  0.658      0.658      1.937e-05 
   1   234   4     0     1     1  0.658      0.658      4.396e-06 
   1   235   1     0     1     1  0.658      0.658      6.594e-06 
   1   236   1     0     2     2  0.658      0.658      9.891e-06 
   1   237   1     0     2     2  0.658      0.658      1.484e-05 
   1   238   1     0     1     1  0.658      0.658      2.225e-05 
   1   239   1     0     1     1  0.658      0.658      3.338e-05 
   1   240   1     0     1     1  0.658      0.658      5.007e-05 
   1   241   1     0     1     1  0.659      0.659      7.511e-05 
   1   242   1     0     1     1  0.659      0.659      0.0001127 
   1   243   1     0     2     2  0.659      0.659      0.0001690 
   1   244   1     0     2     2  0.659      0.659      0.0002535 
   1   245   1U    0     1     1  0.659      0.659      0.0003802 
   1   245   2U    0     4     4  0.659      0.659      0.0002269 
   1   245   3U    0     1     1  0.659      0.659      5.671e-05 
   1   245   4     0     1     1  0.659      0.659      6.106e-06 
   1   246   1     0     1     1  0.659      0.659      9.159e-06 
   1   247   1U    0     1     1  0.659      0.659      1.374e-05 
   1   247   2     0     1     1  0.659      0.659      1.096e-05 
   1   248   1     0     1     1  0.659      0.659      1.644e-05 
   1   249   1     0     2     2  0.659      0.659      2.466e-05 
   1   250   1     0     1     1  0.659      0.659      3.698e-05 
   1   251   1     0     1     1  0.659      0.659      5.547e-05 
   1   252   1     0     1     1  0.659      0.659      8.321e-05 
   1   253   1U    0     1     1  0.659      0.659      0.0001248 
   1   253   2     0     1     1  0.659      0.659      8.521e-05 
   1   254   1U    0     1     1  0.659      0.659      0.0001278 
   1   254   2U    0     1     1  0.659      0.659      7.593e-05 
   1   254   3U    0     1     1  0.659      0.659      2.256e-05 
   1   254   4     0     1     1  0.659      0.659      4.992e-06 
   1   255   1     0     1     1  0.659      0.659      7.488e-06 
   1   256   1     0     2     2  0.659      0.659      1.123e-05 
   1   257   1     0     2     2  0.659      0.659      1.685e-05 
   1   258   1     0     1     1  0.659      0.659      2.527e-05 
   1   259   1     0     1     1  0.660      0.660      3.791e-05 
   1   260   1     0     1     1  0.660      0.660      5.686e-05 
   1   261   1     0     1     1  0.660      0.660      8.529e-05 
   1   262   1U    0     1     1  0.660      0.660      0.0001279 
   1   262   2     0     1     1  0.660      0.660      2.256e-05 
   1   263   1     0     1     1  0.660      0.660      3.384e-05 
   1   264   1     0     1     1  0.660      0.660      5.077e-05 
   1   265   1     0     2     2  0.660      0.660      7.615e-05 
   1   266   1     0     1     1  0.660      0.660      0.0001142 
   1   267   1     0     1     1  0.660      0.660      4.047e-05 
                          
 THE ANALYSIS HAS COMPLETED SUCCESSFULLY
