*Heading
     Model mode I crack propagation with XFEM
** Generated by: Abaqus/CAE Version 6.9-DEV
*Preprint, echo=NO, model=yes, history=yes, contact=NO
**
*Node
      1,           3.,  0.300000012
      2,  0.300000012,  0.299999952
      3,  0.300000012, -0.300000012
      4,           3., -0.300000012
      5,           0.,  0.299999952
      6,  0.300000012,          1.5
      7,           0.,          1.5
      8,           0., -0.300000012
      9,           3.,          1.5
     10,  0.300000012,         -1.5
     11,           3.,         -1.5
     12,           0.,         -1.5
     13,   2.93249989,  0.300000012
     14,   2.86500001,  0.300000012
     15,    2.7974999,  0.299999982
     16,   2.73000002,  0.299999982
     17,    2.6624999,  0.299999982
     18,   2.59500003,  0.299999982
     19,   2.52749991,  0.299999982
     20,   2.46000004,  0.299999982
** ... 1213 like lines cut
*Element, type=CPE4
  1,   1,  13, 249, 106
  2,  13,  14, 250, 249
  3,  14,  15, 251, 250
  4,  15,  16, 252, 251
  5,  16,  17, 253, 252
  6,  17,  18, 254, 253
  7,  18,  19, 255, 254
  8,  19,  20, 256, 255
  9,  20,  21, 257, 256
 10,  21,  22, 258, 257
 11,  22,  23, 259, 258
 12,  23,  24, 260, 259
 13,  24,  25, 261, 260
 14,  25,  26, 262, 261
 15,  26,  27, 263, 262
 16,  27,  28, 264, 263
 17,  28,  29, 265, 264
 18,  29,  30, 266, 265
 19,  30,  31, 267, 266
 20,  31,  32, 268, 267
** ... 1141 like lines cut
*Nset, nset=_PickedSet11, generate
    1,  1232,     1
*Elset, elset=_PickedSet11, generate
    1,  1161,     1
*Elset, elset=one
    196
*enrichment,elset=_PickedSet11,interaction=lower,type=propagation crack, name=abc
** Section: Section-1
*Solid Section, elset=_PickedSet11, material=Material-1
1.0
**  
*Nset, nset=_PickedSet4
 1, 4
*Nset, nset=_PickedSet5
   6,   7,   9, 117, 118, 145, 146, 147, 148, 149, 150, 151, 152, 153, 154, 155
 156, 157, 158, 159, 160, 161, 162, 163, 164, 165, 166, 167, 168, 169, 170, 171
 172, 173, 174, 175, 176, 177, 178, 179, 180, 181, 182, 183
*Elset, elset=_PickedSet5
 385, 386, 387, 735, 736, 737, 738, 739, 740, 741, 742, 743, 744, 745, 746, 747
 748, 749, 750, 751, 752, 753, 754, 755, 756, 757, 758, 759, 760, 761, 762, 763
 764, 765, 766, 767, 768, 769, 770, 771, 772, 773, 774
*Nset, nset=_PickedSet6
  10,  11,  12, 192, 193, 194, 195, 196, 197, 198, 199, 200, 201, 202, 203, 204
 205, 206, 207, 208, 209, 210, 211, 212, 213, 214, 215, 216, 217, 218, 219, 220
 221, 222, 223, 224, 225, 226, 227, 228, 229, 230, 247, 248
*Elset, elset=_PickedSet6
 1095, 1096, 1097, 1098, 1099, 1100, 1101, 1102, 1103, 1104, 1105, 1106, 1107, 1108, 1109, 1110
 1111, 1112, 1113, 1114, 1115, 1116, 1117, 1118, 1119, 1120, 1121, 1122, 1123, 1124, 1125, 1126
 1127, 1128, 1129, 1130, 1131, 1132, 1133, 1134, 1159, 1160, 1161
** 
** MATERIALS
** 
*Material, name=Material-1
*Elastic
 2.1e+11, 0.3
*DAMAGE INITIATION,CRITERION=MAXPS
8.44E7
**DAMAGE EVOLUTION,TYPE=ENERGY,MIXED MODE BEHAVIOR=POWER LAW,POWER=1.0
**4.22d4,4.22d4
**DAMAGE STABILIZATION
** 1.e-5
*surface interaction,name=lower
*surface behavior
*FRACTURE CRITERION,TYPE=VCCT,MIXED MODE BEHAVIOR=POWER,VISCOSITY=1.0E-5
4.22d4,4.22d4,4.22d4,1.0,1.0,1.0
**surface behavior, pressure-overclosure=linear
**6.42E13
** 
*initial condition,type=enrichment
400,1,abc, 1.0, 0.0
400,2,abc, 1.0,-1.0
400,3,abc,-1.0,-1.0
400,4,abc,-1.0, 0.0
401,1,abc, 1.0,-1.0
401,2,abc, 1.0,-2.0
401,3,abc,-1.0,-2.0
401,4,abc,-1.0,-1.0
402,1,abc, 1.0,-2.0
402,2,abc, 1.0,-3.0
402,3,abc,-1.0,-3.0
402,4,abc,-1.0,-2.0
**
*nset,nset=disp
 9999
*equation
 2,
_PickedSet5,2,1,9999,2,-1
**
** BOUNDARY CONDITIONS
** 
** Name: BC-1 Type: Displacement/Rotation
*Boundary
_PickedSet4, 1, 1
*amplitude,name=amp1
0,0,1,1
** ----------------------------------------------------------------
** 
** STEP: Step-1
** 
*Step, name=Step-1, nlgeom=YES, inc=10000
*Static
0.01, 0.66, 1e-09, 0.01
** 
*CONTROLS,PARAMETERS=TIME INCREMENTATION
 , , , , , , ,20
** BOUNDARY CONDITIONS
** 
** Name: BC-2 Type: Displacement/Rotation
*Boundary,amp=amp1
9999, 2, 2, 0.001
**_PickedSet5, 2, 2, 0.001
** Name: BC-3 Type: Displacement/Rotation
*Boundary,amp=amp1
_PickedSet6, 2, 2, -0.001
** 
** 
** FIELD OUTPUT: F-Output-1
** 
*Output, field
*element output
S
*node output
U,PHILSM
*output,history
*node output,nset=disp
rf2,u2
*element output,elset=one
S,
*End Step

