 Abaqus/Standard 2021.HF9                  DATE 15-Apr-2022 TIME 18:29:07
 SUMMARY OF JOB INFORMATION:
 STEP  INC ATT SEVERE EQUIL TOTAL  TOTAL      STEP       INC OF       DOF    IF
               DISCON ITERS ITERS  TIME/    TIME/LPF    TIME/LPF    MONITOR RIKS
               ITERS               FREQ
   1     1   1     0     2     2  0.0100     0.0100     0.01000   
   1     2   1     0     1     1  0.0200     0.0200     0.01000   
   1     3   1     0     1     1  0.0300     0.0300     0.01000   
   1     4   1     0     1     1  0.0400     0.0400     0.01000   
   1     5   1     0     1     1  0.0500     0.0500     0.01000   
   1     6   1     0     1     1  0.0600     0.0600     0.01000   
   1     7   1     0     1     1  0.0700     0.0700     0.01000   
   1     8   1     0     1     1  0.0800     0.0800     0.01000   
   1     9   1     0     1     1  0.0900     0.0900     0.01000   
   1    10   1     0     1     1  0.100      0.100      0.01000   
   1    11   1     0     1     1  0.110      0.110      0.01000   
   1    12   1     0     1     1  0.120      0.120      0.01000   
   1    13   1     0     1     1  0.130      0.130      0.01000   
   1    14   1     0     1     1  0.140      0.140      0.01000   
   1    15   1     0     1     1  0.150      0.150      0.01000   
   1    16   1     0     1     1  0.160      0.160      0.01000   
   1    17   1     0     1     1  0.170      0.170      0.01000   
   1    18   1     0     1     1  0.180      0.180      0.01000   
   1    19   1     0     1     1  0.190      0.190      0.01000   
   1    20   1     0     1     1  0.200      0.200      0.01000   
   1    21   1     0     1     1  0.210      0.210      0.01000   
   1    22   1     0     1     1  0.220      0.220      0.01000   
   1    23   1     0     1     1  0.230      0.230      0.01000   
   1    24   1     0     1     1  0.240      0.240      0.01000   
   1    25   1     0     1     1  0.250      0.250      0.01000   
   1    26   1     0     1     1  0.260      0.260      0.01000   
   1    27   1     0     1     1  0.270      0.270      0.01000   
   1    28   1     0     1     1  0.280      0.280      0.01000   
   1    29   1     0     1     1  0.290      0.290      0.01000   
   1    30   1     0     1     1  0.300      0.300      0.01000   
   1    31   1     0     1     1  0.310      0.310      0.01000   
   1    32   1     0     1     1  0.320      0.320      0.01000   
   1    33   1     0     1     1  0.330      0.330      0.01000   
   1    34   1     0     1     1  0.340      0.340      0.01000   
   1    35   1     0     1     1  0.350      0.350      0.01000   
   1    36   1     0     1     1  0.360      0.360      0.01000   
   1    37   1     0     1     1  0.370      0.370      0.01000   
   1    38   1     0     1     1  0.380      0.380      0.01000   
   1    39   1     0     1     1  0.390      0.390      0.01000   
   1    40   1     0     1     1  0.400      0.400      0.01000   
   1    41   1     0     1     1  0.410      0.410      0.01000   
   1    42   1     0     1     1  0.420      0.420      0.01000   
   1    43   1     0     1     1  0.430      0.430      0.01000   
   1    44   1     0     1     1  0.440      0.440      0.01000   
   1    45   1     0     2     2  0.450      0.450      0.01000   
   1    46   1U    0     1     1  0.450      0.450      0.01000   
   1    46   2U    0     1     1  0.450      0.450      0.009035  
   1    46   3     0     1     1  0.454      0.454      0.004090  
   1    47   1     0     1     1  0.460      0.460      0.006135  
   1    48   1     0     1     1  0.469      0.469      0.009202  
   1    49   1     0     1     1  0.479      0.479      0.01000   
   1    50   1U    0     1     1  0.479      0.479      0.01000   
   1    50   2U    0     1     1  0.479      0.479      0.009179  
   1    50   3     0     1     1  0.484      0.484      0.004251  
   1    51   1U    0     5     5  0.484      0.484      0.006376  
   1    51   2U    0     5     5  0.484      0.484      0.001594  
   1    51   3     0     3     3  0.484      0.484      0.0003985 
   1    52   1     0     2     2  0.485      0.485      0.0005978 
   1    53   1U    0     1     1  0.485      0.485      0.0008967 
   1    53   2U    0     1     1  0.485      0.485      0.0007222 
   1    53   3U    0     1     1  0.485      0.485      0.0002909 
   1    53   4     0     1     1  0.485      0.485      8.608e-05 
   1    54   1     0     2     2  0.485      0.485      0.0001291 
   1    55   1     0     2     2  0.485      0.485      0.0001937 
   1    56   1     0     1     1  0.485      0.485      0.0002905 
   1    57   1U    0     1     1  0.485      0.485      0.0004358 
   1    57   2U    0     1     1  0.485      0.485      0.0003452 
   1    57   3U    0     1     1  0.485      0.485      0.0001367 
   1    57   4U    0     1     1  0.485      0.485      3.841e-05 
   1    57   5     0     1     1  0.485      0.485      8.956e-06 
   1    58   1     0     1     1  0.485      0.485      1.343e-05 
   1    59   1     0     1     1  0.485      0.485      2.015e-05 
   1    60   1     0     1     1  0.485      0.485      3.022e-05 
   1    61   1     0     1     1  0.485      0.485      4.534e-05 
   1    62   1     0     1     1  0.486      0.486      6.801e-05 
   1    63   1     0     1     1  0.486      0.486      0.0001020 
   1    64   1     0     1     1  0.486      0.486      0.0001530 
   1    65   1     0     1     1  0.486      0.486      0.0002295 
   1    66   1     0     2     2  0.486      0.486      0.0003443 
   1    67   1U    0     1     1  0.486      0.486      0.0005164 
   1    67   2U    0     1     1  0.486      0.486      0.0004017 
   1    67   3U    0     1     1  0.486      0.486      0.0001494 
   1    67   4     0     1     1  0.486      0.486      4.154e-05 
   1    68   1     0     2     2  0.486      0.486      6.231e-05 
   1    69   1     0     2     2  0.487      0.487      9.346e-05 
   1    70   1     0     1     1  0.487      0.487      0.0001402 
   1    71   1U    0     1     1  0.487      0.487      0.0002103 
   1    71   2U    0     1     1  0.487      0.487      0.0001848 
   1    71   3     0     1     1  0.487      0.487      8.315e-05 
   1    72   1U    0     1     1  0.487      0.487      0.0001247 
   1    72   2U    0     1     1  0.487      0.487      9.900e-05 
   1    72   3U    0     1     1  0.487      0.487      4.053e-05 
   1    72   4     0     1     1  0.487      0.487      1.227e-05 
   1    73   1     0     1     1  0.487      0.487      1.841e-05 
   1    74   1     0     1     1  0.487      0.487      2.761e-05 
   1    75   1     0     1     1  0.487      0.487      4.142e-05 
   1    76   1     0     1     1  0.487      0.487      6.213e-05 
   1    77   1     0     1     1  0.487      0.487      9.319e-05 
   1    78   1     0     1     1  0.487      0.487      0.0001398 
   1    79   1     0     1     1  0.487      0.487      0.0002097 
   1    80   1     0     2     2  0.488      0.488      0.0003145 
   1    81   1U    0     1     1  0.488      0.488      0.0004718 
   1    81   2U    0     1     1  0.488      0.488      0.0003646 
   1    81   3U    0     1     1  0.488      0.488      0.0001327 
   1    81   4     0     1     1  0.488      0.488      3.679e-05 
   1    82   1     0     1     1  0.488      0.488      5.518e-05 
   1    83   1     0     1     1  0.488      0.488      8.277e-05 
   1    84   1     0     1     1  0.488      0.488      0.0001242 
   1    85   1U    0     1     1  0.488      0.488      0.0001862 
   1    85   2U    0     1     1  0.488      0.488      0.0001727 
   1    85   3     0     1     1  0.488      0.488      8.121e-05 
   1    86   1U    0     1     1  0.488      0.488      0.0001218 
   1    86   2U    0     1     1  0.488      0.488      9.968e-05 
   1    86   3U    0     1     1  0.488      0.488      4.195e-05 
   1    86   4     0     1     1  0.488      0.488      1.308e-05 
   1    87   1U    0     1     1  0.488      0.488      1.962e-05 
   1    87   2U    0     1     1  0.488      0.488      1.859e-05 
   1    87   3     0     1     1  0.488      0.488      8.836e-06 
   1    88   1     0     1     1  0.488      0.488      1.325e-05 
   1    89   1     0     1     1  0.488      0.488      1.988e-05 
   1    90   1     0     1     1  0.488      0.488      2.982e-05 
   1    91   1     0     1     1  0.488      0.488      4.473e-05 
   1    92   1     0     1     1  0.488      0.488      6.710e-05 
   1    93   1     0     1     1  0.488      0.488      0.0001006 
   1    94   1U    0     1     1  0.488      0.488      0.0001510 
   1    94   2U    0     1     1  0.488      0.488      0.0001310 
   1    94   3     0     1     1  0.488      0.488      5.798e-05 
   1    95   1     0     2     2  0.489      0.489      8.697e-05 
   1    96   1     0     2     2  0.489      0.489      0.0001305 
   1    97   1     0     1     1  0.489      0.489      0.0001957 
   1    98   1U    0     1     1  0.489      0.489      0.0002935 
   1    98   2U    0     1     1  0.489      0.489      0.0002271 
   1    98   3U    0     1     1  0.489      0.489      8.836e-05 
   1    98   4     0     1     1  0.489      0.489      2.520e-05 
   1    99   1     0     1     1  0.489      0.489      3.781e-05 
   1   100   1     0     1     1  0.489      0.489      5.671e-05 
   1   101   1     0     1     1  0.489      0.489      8.507e-05 
   1   102   1     0     1     1  0.489      0.489      0.0001276 
   1   103   1U    0     1     1  0.489      0.489      0.0001914 
   1   103   2U    0     1     1  0.489      0.489      0.0001598 
   1   103   3     0     1     1  0.489      0.489      6.850e-05 
   1   104   1     0     2     2  0.489      0.489      0.0001027 
   1   105   1     0     2     2  0.490      0.490      0.0001541 
   1   106   1     0     1     1  0.490      0.490      0.0002312 
   1   107   1     0     1     1  0.490      0.490      0.0003468 
   1   108   1U    0     1     1  0.490      0.490      0.0005202 
   1   108   2U    0     1     1  0.490      0.490      0.0004663 
   1   108   3     0     1     1  0.490      0.490      0.0002135 
   1   109   1U    0     1     1  0.490      0.490      0.0003202 
   1   109   2U    0     1     1  0.490      0.490      0.0002477 
   1   109   3U    0     1     1  0.490      0.490      9.486e-05 
   1   109   4     0     1     1  0.490      0.490      2.723e-05 
   1   110   1     0     1     1  0.490      0.490      4.085e-05 
   1   111   1     0     1     1  0.490      0.490      6.127e-05 
   1   112   1     0     1     1  0.491      0.491      9.190e-05 
   1   113   1     0     1     1  0.491      0.491      0.0001379 
   1   114   1U    0     1     1  0.491      0.491      0.0002068 
   1   114   2U    0     1     1  0.491      0.491      0.0001668 
   1   114   3U    0     1     1  0.491      0.491      6.905e-05 
   1   114   4     0     1     1  0.491      0.491      2.125e-05 
   1   115   1U    0     1     1  0.491      0.491      3.187e-05 
   1   115   2U    0     1     1  0.491      0.491      2.963e-05 
   1   115   3     0     1     1  0.491      0.491      1.385e-05 
   1   116   1     0     1     1  0.491      0.491      2.078e-05 
   1   117   1     0     1     1  0.491      0.491      3.116e-05 
   1   118   1     0     1     1  0.491      0.491      4.675e-05 
   1   119   1     0     1     1  0.491      0.491      7.012e-05 
   1   120   1     0     1     1  0.491      0.491      0.0001052 
   1   121   1U    0     1     1  0.491      0.491      0.0001578 
   1   121   2U    0     1     1  0.491      0.491      0.0001391 
   1   121   3     0     1     1  0.491      0.491      6.241e-05 
   1   122   1     0     2     2  0.491      0.491      9.362e-05 
   1   123   1     0     2     2  0.491      0.491      0.0001404 
   1   124   1     0     1     1  0.492      0.492      0.0002106 
   1   125   1     0     1     1  0.492      0.492      0.0003160 
   1   126   1U    0     1     1  0.492      0.492      0.0004739 
   1   126   2U    0     1     1  0.492      0.492      0.0004393 
   1   126   3     0     1     1  0.492      0.492      0.0002062 
   1   127   1U    0     1     1  0.492      0.492      0.0003092 
   1   127   2U    0     1     1  0.492      0.492      0.0002443 
   1   127   3U    0     1     1  0.492      0.492      9.832e-05 
   1   127   4     0     1     1  0.492      0.492      2.872e-05 
   1   128   1     0     1     1  0.492      0.492      4.308e-05 
   1   129   1     0     1     1  0.492      0.492      6.463e-05 
   1   130   1     0     1     1  0.492      0.492      9.694e-05 
   1   131   1     0     1     1  0.492      0.492      0.0001454 
   1   132   1U    0     1     1  0.492      0.492      0.0002181 
   1   132   2U    0     1     1  0.492      0.492      0.0001724 
   1   132   3U    0     1     1  0.492      0.492      6.972e-05 
   1   132   4     0     1     1  0.492      0.492      2.066e-05 
   1   133   1     0     1     1  0.492      0.492      3.099e-05 
   1   134   1     0     1     1  0.492      0.492      4.649e-05 
   1   135   1     0     1     1  0.493      0.493      6.973e-05 
   1   136   1     0     1     1  0.493      0.493      0.0001046 
   1   137   1U    0     1     1  0.493      0.493      0.0001569 
   1   137   2U    0     1     1  0.493      0.493      0.0001454 
   1   137   3     0     1     1  0.493      0.493      6.815e-05 
   1   138   1U    0     1     1  0.493      0.493      0.0001022 
   1   138   2U    0     1     1  0.493      0.493      8.615e-05 
   1   138   3U    0     1     1  0.493      0.493      3.700e-05 
   1   138   4     0     1     1  0.493      0.493      1.151e-05 
   1   139   1U    0     1     1  0.493      0.493      1.727e-05 
   1   139   2U    0     1     1  0.493      0.493      1.630e-05 
   1   139   3     0     1     1  0.493      0.493      7.716e-06 
   1   140   1     0     1     1  0.493      0.493      1.157e-05 
   1   141   1     0     1     1  0.493      0.493      1.736e-05 
   1   142   1     0     2     2  0.493      0.493      2.604e-05 
   1   143   1     0     1     1  0.493      0.493      3.906e-05 
   1   144   1     0     1     1  0.493      0.493      5.860e-05 
   1   145   1     0     1     1  0.493      0.493      8.789e-05 
   1   146   1U    0     1     1  0.493      0.493      0.0001318 
   1   146   2U    0     1     1  0.493      0.493      0.0001232 
   1   146   3     0     1     1  0.493      0.493      5.812e-05 
   1   147   1U    0     1     1  0.493      0.493      8.718e-05 
   1   147   2U    0     1     1  0.493      0.493      7.464e-05 
   1   147   3U    0     1     1  0.493      0.493      3.251e-05 
   1   147   4     0     1     1  0.493      0.493      1.022e-05 
   1   148   1     0     1     1  0.493      0.493      1.533e-05 
   1   149   1     0     1     1  0.493      0.493      2.300e-05 
   1   150   1     0     1     1  0.493      0.493      3.450e-05 
   1   151   1     0     1     1  0.493      0.493      5.175e-05 
   1   152   1     0     1     1  0.493      0.493      7.762e-05 
   1   153   1     0     1     1  0.493      0.493      0.0001164 
   1   154   1U    0     1     1  0.493      0.493      0.0001747 
   1   154   2U    0     1     1  0.493      0.493      0.0001418 
   1   154   3U    0     1     1  0.493      0.493      5.943e-05 
   1   154   4     0     1     1  0.493      0.493      1.879e-05 
   1   155   1     0     1     1  0.493      0.493      2.818e-05 
   1   156   1     0     1     1  0.493      0.493      4.227e-05 
   1   157   1     0     1     1  0.494      0.494      6.340e-05 
   1   158   1     0     1     1  0.494      0.494      9.510e-05 
   1   159   1     0     1     1  0.494      0.494      0.0001427 
   1   160   1U    0     1     1  0.494      0.494      0.0002140 
   1   160   2U    0     1     1  0.494      0.494      0.0001615 
   1   160   3U    0     1     1  0.494      0.494      6.387e-05 
   1   160   4     0     1     1  0.494      0.494      1.942e-05 
   1   161   1U    0     1     1  0.494      0.494      2.912e-05 
   1   161   2U    0     1     1  0.494      0.494      2.693e-05 
   1   161   3     0     1     1  0.494      0.494      1.253e-05 
   1   162   1     0     1     1  0.494      0.494      1.880e-05 
   1   163   1     0     1     1  0.494      0.494      2.820e-05 
   1   164   1     0     1     1  0.494      0.494      4.230e-05 
   1   165   1     0     1     1  0.494      0.494      6.345e-05 
   1   166   1     0     1     1  0.494      0.494      9.517e-05 
   1   167   1U    0     1     1  0.494      0.494      0.0001428 
   1   167   2U    0     1     1  0.494      0.494      0.0001325 
   1   167   3     0     1     1  0.494      0.494      6.228e-05 
   1   168   1U    0     1     1  0.494      0.494      9.341e-05 
   1   168   2U    0     1     1  0.494      0.494      7.862e-05 
   1   168   3U    0     1     1  0.494      0.494      3.382e-05 
   1   168   4     0     1     1  0.494      0.494      1.062e-05 
   1   169   1     0     1     1  0.494      0.494      1.593e-05 
   1   170   1     0     1     1  0.494      0.494      2.389e-05 
   1   171   1     0     1     1  0.494      0.494      3.584e-05 
   1   172   1     0     1     1  0.494      0.494      5.376e-05 
   1   173   1     0     1     1  0.494      0.494      8.064e-05 
   1   174   1     0     1     1  0.494      0.494      0.0001210 
   1   175   1U    0     1     1  0.494      0.494      0.0001815 
   1   175   2U    0     1     1  0.494      0.494      0.0001439 
   1   175   3U    0     1     1  0.494      0.494      5.901e-05 
   1   175   4     0     1     1  0.494      0.494      1.822e-05 
   1   176   1U    0     1     1  0.494      0.494      2.733e-05 
   1   176   2U    0     1     1  0.494      0.494      2.561e-05 
   1   176   3     0     1     1  0.494      0.494      1.205e-05 
   1   177   1     0     1     1  0.495      0.495      1.808e-05 
   1   178   1     0     1     1  0.495      0.495      2.712e-05 
   1   179   1     0     1     1  0.495      0.495      4.067e-05 
   1   180   1     0     1     1  0.495      0.495      6.101e-05 
   1   181   1     0     1     1  0.495      0.495      9.151e-05 
   1   182   1     0     1     1  0.495      0.495      0.0001373 
   1   183   1     0     1     1  0.495      0.495      0.0002059 
   1   184   1     0     2     2  0.495      0.495      0.0003089 
   1   185   1U    0     1     1  0.495      0.495      0.0004633 
   1   185   2U    0     1     1  0.495      0.495      0.0003575 
   1   185   3U    0     1     1  0.495      0.495      0.0001325 
   1   185   4     0     1     1  0.495      0.495      3.701e-05 
   1   186   1     0     1     1  0.495      0.495      5.552e-05 
   1   187   1     0     1     1  0.496      0.496      8.328e-05 
   1   188   1     0     1     1  0.496      0.496      0.0001249 
   1   189   1U    0     1     1  0.496      0.496      0.0001874 
   1   189   2U    0     1     1  0.496      0.496      0.0001733 
   1   189   3     0     1     1  0.496      0.496      8.124e-05 
   1   190   1U    0     1     1  0.496      0.496      0.0001219 
   1   190   2U    0     1     1  0.496      0.496      0.0001003 
   1   190   3U    0     1     1  0.496      0.496      4.230e-05 
   1   190   4     0     1     1  0.496      0.496      1.314e-05 
   1   191   1U    0     1     1  0.496      0.496      1.970e-05 
   1   191   2U    0     1     1  0.496      0.496      1.858e-05 
   1   191   3     0     1     1  0.496      0.496      8.790e-06 
   1   192   1     0     1     1  0.496      0.496      1.319e-05 
   1   193   1     0     1     1  0.496      0.496      1.978e-05 
   1   194   1     0     1     1  0.496      0.496      2.967e-05 
   1   195   1     0     1     1  0.496      0.496      4.450e-05 
   1   196   1     0     1     1  0.496      0.496      6.675e-05 
   1   197   1     0     1     1  0.496      0.496      0.0001001 
   1   198   1U    0     1     1  0.496      0.496      0.0001502 
   1   198   2U    0     1     1  0.496      0.496      0.0001318 
   1   198   3     0     1     1  0.496      0.496      5.889e-05 
   1   199   1     0     2     2  0.496      0.496      8.833e-05 
   1   200   1     0     2     2  0.496      0.496      0.0001325 
   1   201   1     0     1     1  0.497      0.497      0.0001987 
   1   202   1U    0     1     1  0.497      0.497      0.0002981 
   1   202   2U    0     1     1  0.497      0.497      0.0002309 
   1   202   3U    0     1     1  0.497      0.497      9.059e-05 
   1   202   4U    0     1     1  0.497      0.497      2.588e-05 
   1   202   5     0     1     1  0.497      0.497      6.161e-06 
   1   203   1     0     1     1  0.497      0.497      9.241e-06 
   1   204   1     0     1     1  0.497      0.497      1.386e-05 
   1   205   1     0     1     1  0.497      0.497      2.079e-05 
   1   206   1     0     1     1  0.497      0.497      3.119e-05 
   1   207   1     0     1     1  0.497      0.497      4.678e-05 
   1   208   1     0     1     1  0.497      0.497      7.017e-05 
   1   209   1     0     1     1  0.497      0.497      0.0001053 
   1   210   1U    0     1     1  0.497      0.497      0.0001579 
   1   210   2U    0     1     1  0.497      0.497      0.0001358 
   1   210   3     0     1     1  0.497      0.497      5.948e-05 
   1   211   1     0     2     2  0.497      0.497      8.922e-05 
   1   212   1     0     2     2  0.497      0.497      0.0001338 
   1   213   1     0     1     1  0.497      0.497      0.0002007 
   1   214   1U    0     1     1  0.497      0.497      0.0003011 
   1   214   2U    0     1     1  0.497      0.497      0.0002331 
   1   214   3U    0     1     1  0.497      0.497      8.917e-05 
   1   214   4     0     1     1  0.497      0.497      2.546e-05 
   1   215   1     0     1     1  0.497      0.497      3.820e-05 
   1   216   1     0     1     1  0.497      0.497      5.730e-05 
   1   217   1     0     1     1  0.498      0.498      8.594e-05 
   1   218   1     0     1     1  0.498      0.498      0.0001289 
   1   219   1U    0     1     1  0.498      0.498      0.0001934 
   1   219   2U    0     1     1  0.498      0.498      0.0001615 
   1   219   3     0     1     1  0.498      0.498      6.941e-05 
   1   220   1     0     2     2  0.498      0.498      0.0001041 
   1   221   1     0     2     2  0.498      0.498      0.0001562 
   1   222   1U    0     1     1  0.498      0.498      0.0002343 
   1   222   2     0     1     1  0.498      0.498      0.0002217 
   1   223   1     0     1     1  0.499      0.499      0.0003325 
   1   224   1U    0     1     1  0.499      0.499      0.0004988 
   1   224   2U    0     1     1  0.499      0.499      0.0004267 
   1   224   3     0     1     1  0.499      0.499      0.0001890 
   1   225   1U    0     1     1  0.499      0.499      0.0002835 
   1   225   2U    0     1     1  0.499      0.499      0.0002122 
   1   225   3U    0     1     1  0.499      0.499      7.780e-05 
   1   225   4     0     1     1  0.499      0.499      2.207e-05 
   1   226   1     0     1     1  0.499      0.499      3.310e-05 
   1   227   1     0     1     1  0.499      0.499      4.965e-05 
   1   228   1     0     1     1  0.499      0.499      7.448e-05 
   1   229   1     0     1     1  0.499      0.499      0.0001117 
   1   230   1U    0     1     1  0.499      0.499      0.0001676 
   1   230   2U    0     1     1  0.499      0.499      0.0001287 
   1   230   3U    0     1     1  0.499      0.499      5.198e-05 
   1   230   4     0     1     1  0.499      0.499      1.623e-05 
   1   231   1U    0     1     1  0.499      0.499      2.434e-05 
   1   231   2U    0     1     1  0.499      0.499      2.306e-05 
   1   231   3     0     1     1  0.499      0.499      1.097e-05 
   1   232   1     0     1     1  0.499      0.499      1.646e-05 
   1   233   1     0     1     1  0.499      0.499      2.468e-05 
   1   234   1     0     1     1  0.499      0.499      3.703e-05 
   1   235   1     0     1     1  0.499      0.499      5.554e-05 
   1   236   1     0     1     1  0.499      0.499      8.331e-05 
   1   237   1U    0     1     1  0.499      0.499      0.0001250 
   1   237   2U    0     1     1  0.499      0.499      9.269e-05 
   1   237   3U    0     1     1  0.499      0.499      3.629e-05 
   1   237   4     0     1     1  0.499      0.499      1.091e-05 
   1   238   1     0     1     1  0.499      0.499      1.636e-05 
   1   239   1     0     1     1  0.499      0.499      2.454e-05 
   1   240   1     0     1     1  0.499      0.499      3.681e-05 
   1   241   1     0     1     1  0.499      0.499      5.522e-05 
   1   242   1U    0     1     1  0.499      0.499      8.283e-05 
   1   242   2U    0     1     1  0.499      0.499      6.575e-05 
   1   242   3U    0     1     1  0.499      0.499      2.724e-05 
   1   242   4     0     1     1  0.499      0.499      8.464e-06 
   1   243   1U    0     1     1  0.499      0.499      1.270e-05 
   1   243   2U    0     1     1  0.499      0.499      1.197e-05 
   1   243   3     0     1     1  0.499      0.499      5.661e-06 
   1   244   1     0     2     2  0.499      0.499      8.491e-06 
   1   245   1     0     1     1  0.499      0.499      1.274e-05 
   1   246   1     0     1     1  0.499      0.499      1.910e-05 
   1   247   1     0     2     2  0.499      0.499      2.866e-05 
   1   248   1     0     2     2  0.500      0.500      4.298e-05 
   1   249   1     0     3     3  0.500      0.500      6.448e-05 
   1   250   1     0     2     2  0.500      0.500      9.672e-05 
   1   251   1     0     2     2  0.500      0.500      0.0001451 
   1   252   1     0     1     1  0.500      0.500      0.0002176 
   1   253   1     0     1     1  0.500      0.500      0.0003264 
   1   254   1     0     1     1  0.501      0.501      0.0004896 
   1   255   1     0     1     1  0.502      0.502      0.0007344 
   1   256   1     0     1     1  0.503      0.503      0.001102  
   1   257   1     0     1     1  0.504      0.504      0.001652  
   1   258   1     0     1     1  0.507      0.507      0.002479  
   1   259   1     0     1     1  0.511      0.511      0.003718  
   1   260   1     0     1     1  0.516      0.516      0.005577  
   1   261   1     0     1     1  0.525      0.525      0.008366  
   1   262   1     0     1     1  0.535      0.535      0.01000   
   1   263   1     0     1     1  0.545      0.545      0.01000   
   1   264   1     0     1     1  0.555      0.555      0.01000   
   1   265   1     0     1     1  0.565      0.565      0.01000   
   1   266   1     0     1     1  0.575      0.575      0.01000   
   1   267   1     0     1     1  0.585      0.585      0.01000   
   1   268   1     0     1     1  0.595      0.595      0.01000   
   1   269   1     0     1     1  0.605      0.605      0.01000   
   1   270   1     0     1     1  0.615      0.615      0.01000   
   1   271   1     0     1     1  0.625      0.625      0.01000   
   1   272   1     0     1     1  0.635      0.635      0.01000   
   1   273   1     0     1     1  0.645      0.645      0.01000   
   1   274   1     0     1     1  0.655      0.655      0.01000   
   1   275   1     0     1     1  0.665      0.665      0.01000   
   1   276   1     0     1     1  0.675      0.675      0.01000   
   1   277   1     0     1     1  0.685      0.685      0.01000   
   1   278   1     0     1     1  0.695      0.695      0.01000   
   1   279   1     0     1     1  0.705      0.705      0.01000   
   1   280   1     0     1     1  0.715      0.715      0.01000   
   1   281   1     0     1     1  0.725      0.725      0.01000   
   1   282   1     0     1     1  0.735      0.735      0.01000   
   1   283   1     0     1     1  0.745      0.745      0.01000   
   1   284   1     0     1     1  0.755      0.755      0.01000   
   1   285   1     0     1     1  0.765      0.765      0.01000   
   1   286   1     0     1     1  0.775      0.775      0.01000   
   1   287   1     0     1     1  0.785      0.785      0.01000   
   1   288   1     0     1     1  0.795      0.795      0.01000   
   1   289   1     0     1     1  0.800      0.800      0.005491  
                          
 THE ANALYSIS HAS COMPLETED SUCCESSFULLY
