*Heading
** Job name: tension_fracture_job Model name: tension_fracture
** Generated by: Abaqus/CAE 2021.HF9
*Preprint, echo=NO, model=NO, history=NO, contact=NO
**
** PARTS
**
*Part, name=crack
*End Part
**  
*Part, name=plate
*Node
      1,           0.,       -1500.
      2,   66.6666641,       -1500.
      3,   133.333328,       -1500.
      4,         200.,       -1500.
      5,   266.666656,       -1500.
      6,   333.333344,       -1500.
      7,         400.,       -1500.
      8,   466.666656,       -1500.
      9,   533.333313,       -1500.
     10,         600.,       -1500.
     11,   666.666687,       -1500.
     12,   733.333313,       -1500.
     13,         800.,       -1500.
     14,   866.666687,       -1500.
     15,   933.333313,       -1500.
     16,        1000.,       -1500.
     17,   1066.66663,       -1500.
     18,   1133.33337,       -1500.
     19,        1200.,       -1500.
     20,   1266.66663,       -1500.
** ... 2740 like lines cut
*Element, type=CPE4
   1,    1,    2,   48,   47
   2,    2,    3,   49,   48
   3,    3,    4,   50,   49
   4,    4,    5,   51,   50
   5,    5,    6,   52,   51
   6,    6,    7,   53,   52
   7,    7,    8,   54,   53
   8,    8,    9,   55,   54
   9,    9,   10,   56,   55
  10,   10,   11,   57,   56
  11,   11,   12,   58,   57
  12,   12,   13,   59,   58
  13,   13,   14,   60,   59
  14,   14,   15,   61,   60
  15,   15,   16,   62,   61
  16,   16,   17,   63,   62
  17,   17,   18,   64,   63
  18,   18,   19,   65,   64
  19,   19,   20,   66,   65
  20,   20,   21,   67,   66
** ... 2635 like lines cut
*Nset, nset=All, generate
    1,  2760,     1
*Elset, elset=All, generate
    1,  2655,     1
*Nset, nset=bottom, generate
  1,  46,   1
*Elset, elset=bottom, generate
  1,  45,   1
*Nset, nset=top, generate
 2715,  2760,     1
*Elset, elset=top, generate
 2611,  2655,     1
*Nset, nset=right, generate
   46,  2760,    46
*Elset, elset=right, generate
   45,  2655,    45
*Orientation, name=Ori-1
1., 0., 0., 0., 1., 0.
1, 0.
** Section: solid
*Solid Section, elset=All, orientation=Ori-1, material=elas
1000.,
*End Part
**  
**
** ASSEMBLY
**
*Assembly, name=Assembly
**  
*Instance, name=plate_1, part=plate
*End Instance
**  
*Instance, name=crack_1, part=crack
*End Instance
**  
*Node
      1,        1500.,        1500.,           0.
*Nset, nset=bdisp
 1,
** Constraint: ce_bot
*Equation
2
plate_1.top, 2, 1.
bdisp, 2, -1.
*Enrichment, name=enr1, type=PROPAGATION CRACK, elset=plate_1.All, interaction=contact
*End Assembly
** 
** MATERIALS
** 
*Material, name=elas
*Damage Initiation, criterion=MAXPS
220.,
*Damage Evolution, type=ENERGY, mixed mode behavior=POWER LAW, power=1.
 42.2, 42.2,   0.
*Damage Stabilization
1e-05
*Elastic
210000., 0.3
** 
** INTERACTION PROPERTIES
** 
*Surface Interaction, name=contact
0.02,
*Initial Conditions, type=ENRICHMENT
plate_1.1310, 1,enr1, -25.4237, -33.3333
plate_1.1310, 2,enr1, -25.4237, 33.3333
plate_1.1310, 3,enr1, 25.4237, 33.3333
plate_1.1310, 4,enr1, 25.4237, -33.3333
plate_1.1309, 1,enr1, -25.4237
plate_1.1309, 2,enr1, -25.4237
plate_1.1309, 3,enr1, 25.4237
plate_1.1309, 4,enr1, 25.4237
plate_1.1308, 1,enr1, -25.4237
plate_1.1308, 2,enr1, -25.4237
plate_1.1308, 3,enr1, 25.4237
plate_1.1308, 4,enr1, 25.4237
plate_1.1307, 1,enr1, -25.4237
plate_1.1307, 2,enr1, -25.4237
plate_1.1307, 3,enr1, 25.4237
plate_1.1307, 4,enr1, 25.4237
plate_1.1306, 1,enr1, -25.4237
plate_1.1306, 2,enr1, -25.4237
plate_1.1306, 3,enr1, 25.4237
plate_1.1306, 4,enr1, 25.4237
** ----------------------------------------------------------------
** 
** STEP: Static
** 
*Step, name=Static, nlgeom=YES, inc=10000
*Static
0.01, 0.8, 1e-09, 0.01
** 
** BOUNDARY CONDITIONS
** 
** Name: bot Type: Displacement/Rotation
*Boundary
plate_1.bottom, 2, 2, -1.
** Name: side Type: Displacement/Rotation
*Boundary
plate_1.right, 1, 1
** Name: top Type: Displacement/Rotation
*Boundary
bdisp, 2, 2, 1.
** 
** CONTROLS
** 
*Controls, reset
*Controls, analysis=discontinuous
*Controls, parameters=time incrementation
, , , , , , , 20, , , 
** 
** OUTPUT REQUESTS
** 
*Restart, write, frequency=0
** 
** FIELD OUTPUT: F-Output-1
** 
*Output, field
*Node Output
PHILSM, RF, U
*Element Output, position=AVERAGED AT NODES, directions=YES
E, LE, NE, S, STATUSXFEM
** 
** HISTORY OUTPUT: H-Output-2
** 
*Output, history
*Node Output, nset=bdisp
RF2, U2
** 
** HISTORY OUTPUT: H-Output-1
** 
*Output, history, variable=PRESELECT
*End Step
