*Heading
     Model II crack propagation with XFEM with full integrate stations
*** Job name: shear_reg Model name: Model-1
** Generated by: Abaqus/CAE Version 6.9-DEV
*Preprint, echo=NO, model=yes, history=yes
**
*Node
      1,           0.,          -3.
      2,  0.100000001,          -3.
      3,  0.200000003,          -3.
      4,  0.300000012,          -3.
      5,  0.400000006,          -3.
      6,          0.5,          -3.
      7,  0.600000024,          -3.
      8,  0.699999988,          -3.
      9,  0.800000012,          -3.
     10,  0.899999976,          -3.
     11,           1.,          -3.
     12,   1.10000002,          -3.
     13,   1.20000005,          -3.
     14,   1.29999995,          -3.
     15,   1.39999998,          -3.
     16,          1.5,          -3.
     17,   1.60000002,          -3.
     18,   1.70000005,          -3.
     19,   1.79999995,          -3.
     20,   1.89999998,          -3.
** ... 1872 like lines cut
*Element, type=CPE4
   1,    1,    2,   33,   32
   2,    2,    3,   34,   33
   3,    3,    4,   35,   34
   4,    4,    5,   36,   35
   5,    5,    6,   37,   36
   6,    6,    7,   38,   37
   7,    7,    8,   39,   38
   8,    8,    9,   40,   39
   9,    9,   10,   41,   40
  10,   10,   11,   42,   41
  11,   11,   12,   43,   42
  12,   12,   13,   44,   43
  13,   13,   14,   45,   44
  14,   14,   15,   46,   45
  15,   15,   16,   47,   46
  16,   16,   17,   48,   47
  17,   17,   18,   49,   48
  18,   18,   19,   50,   49
  19,   19,   20,   51,   50
  20,   20,   21,   52,   51
** ... 1780 like lines cut
*Nset, nset=_PickedSet2, generate
    1,  1891,     1
*Elset, elset=_PickedSet2, generate
    1,  1800,     1
*enrichment,elset=_PickedSet2,interaction=lower,type=propagation crack, name=abc
** Section: Section-1
*Solid Section, elset=_PickedSet2, material=Material-1
1.0
**  
*Nset, nset=_PickedSet4, generate
 1861,  1891,     1
*Elset, elset=_PickedSet4, generate
 1771,  1800,     1
*Nset, nset=_PickedSet5, generate
  1,  31,   1
*Elset, elset=_PickedSet5, generate
  1,  30,   1
** 
** MATERIALS
** 
*Material, name=Material-1
*Elastic
 2.1e+11, 0.3
*DAMAGE INITIATION,CRITERION=MAXPS
2.2E8
*DAMAGE EVOLUTION,TYPE=ENERGY,MIXED MODE BEHAVIOR=POWER LAW,POWER=1.0
4.22d4,4.22d4
*DAMAGE STABILIZATION
1.e-4
*surface interaction,name=lower
20.e-3,
***surface behavior, pressure-overclosure=linear
**6.42E13
**
*initial condition,type=enrichment
901,1,abc,-1.0,-1.5
901,2,abc,-1.0,-1.4
901,3,abc, 1.0,-1.4
901,4,abc, 1.0,-1.5
902,1,abc,-1.0,-1.4
902,2,abc,-1.0,-1.2
902,3,abc, 1.0,-1.2
902,4,abc, 1.0,-1.4
903,1,abc,-1.0,-1.3
903,2,abc,-1.0,-1.2
903,3,abc, 1.0,-1.2
903,4,abc, 1.0,-1.3
904,1,abc,-1.0,-1.2
904,2,abc,-1.0,-1.1
904,3,abc, 1.0,-1.1
904,4,abc, 1.0,-1.2
905,1,abc,-1.0,-1.1
905,2,abc,-1.0,-1.0
905,3,abc, 1.0,-1.0
905,4,abc, 1.0,-1.1
** ... 40 like lines cut
** ----------------------------------------------------------------
*nset,nset=disp
 9999
*equation
 2,
_PickedSet5,1,1,9999,1,-1
*amplitude,name=ramp1
0.0,0.0,1.0,1.0
** 
** STEP: Step-1
** 
*Step, name=Step-1, nlgeom=YES, inc=10000
*Static
0.005, 0.5850, 1e-09, 0.005
** 
*CONTROLS,PARAMETERS=TIME INCREMENTATION
 , , , , , , ,20
**
** BOUNDARY CONDITIONS
** 
** Name: BC-1 Type: Displacement/Rotation
*Boundary,amp=ramp1
_PickedSet4, 1, 1, -0.01
_PickedSet4, 2, 2, 0.00
** Name: BC-2 Type: Displacement/Rotation
**Boundary,amp=ramp1
disp, 1, 1, 0.01
_PickedSet5, 2, 2, 0.00
** 
** OUTPUT REQUESTS
** 
** FIELD OUTPUT: F-Output-1
** 
*Output, field,freq=10
*element output
S,
*node output
U
PHILSM
** 
** HISTORY OUTPUT: H-Output-1
** 
*Output, history,freq=10
*node output,nset=disp
rf1,u1
*End Step

