1

   Abaqus 2021.HF9                                  Date 15-Mar-2022   Time 17:09:18
   For use by REGENTS OF THE UNIVERSITY OF COLORADO under license from Dassault Systemes or its subsidiary.



                         The Abaqus Software is a product of:

                           Dassault Systemes SIMULIA Corp.
                           1301 Atwood Avenue, Suite 101W
                              Johnston, RI 02919, USA
 


                   The Abaqus Software is available only under license
                   from Dassault Systemes or its subsidiary and may be
                   used or reproduced only in accordance with the terms
                   of such license.
 
                          On machine DESKTOP-KVJB0RN 
                          you are authorized to run
                          Abaqus/Standard until 31-Dec-2022

                          Your site id is: 200000000001323 


 
                    For assistance or any other information you may
                    obtain contact information for your local office
                    from the world wide web at:

                      http://www.3ds.com/products/simulia/locations/

 
                * * * * * * * * * * * * * * * * * * * * * * * * * * * * * * 
                *                                                         * 
                *                   *****************                     * 
                *                   *  N O T I C E  *                     * 
                *                   *****************                     * 
                *                                                         * 
                *                                                         * 
                *                     Abaqus 2021.HF9                     * 
                *                                                         * 
                *          BUILD ID: 2021_09_20-13.06.07 168298           * 
                *                                                         * 
                *                                                         * 
                *  Please make sure you are using                         * 
                *  release Abaqus 2021.HF9 manuals                        * 
                *  plus the notes accompanying this release.              * 
                *                                                         * 
                *                                                         * 
                *                                                         * 
                *                                                         * 
                *                                                         * 
                *   This program may not be used for commercial purposes  * 
                *           without payment of a commercial fee.          * 
                *                                                         * 
                * * * * * * * * * * * * * * * * * * * * * * * * * * * * * * 


 



     PROCESSING PART, INSTANCE, AND ASSEMBLY INFORMATION
   *******************************************************


     END PROCESSING PART, INSTANCE, AND ASSEMBLY INFORMATION
   ***********************************************************

  *initial condition,type=enrichment



     OPTIONS BEING PROCESSED
   ***************************


  *Heading
               Model II crack propagation with XFEM with full integrate stations                                                                                                                                                                                                                                                                                                                                                                                                                                                          
  *Node
  *Element, type=CPE4
  *Nset, nset=_PickedSet2, generate
  *Elset, elset=_PickedSet2, generate
  *Nset, nset=_PickedSet4, generate
  *Elset, elset=_PickedSet4, generate
  *Nset, nset=_PickedSet5, generate
  *Elset, elset=_PickedSet5, generate
  *nset,nset=disp
  *amplitude,name=ramp1
  *Material, name=Material-1
  *Elastic
  *DAMAGE INITIATION,CRITERION=MAXPS
  *DAMAGE EVOLUTION,TYPE=ENERGY,MIXED MODE BEHAVIOR=POWER LAW,POWER=1.0
  *initial condition,type=enrichment
  *Solid Section, elset=_PickedSet2, material=Material-1
  *Solid Section, elset=_PickedSet2, material=Material-1
  *enrichment,elset=_PickedSet2,interaction=lower,type=propagation crack, name=abc
  *surface interaction,name=lower
  *enrichment,elset=_PickedSet2,interaction=lower,type=propagation crack, name=abc
  *surface interaction,name=lower
  *initial condition,type=enrichment
  *surface interaction,name=lower
  *Boundary,amp=ramp1
  *Boundary,amp=ramp1
  *equation
  *enrichment,elset=_PickedSet2,interaction=lower,type=propagation crack, name=abc
  *surface interaction,name=lower
  *enrichment,elset=_PickedSet2,interaction=lower,type=propagation crack, name=abc
  *Output, field,freq=10
  *Output, history,freq=10
  *element output
  *initial condition,type=enrichment
  *Output, field,freq=10
  *Output, history,freq=10
  *element output
  *initial condition,type=enrichment
  *initial condition,type=enrichment
  *Output, field,freq=10
  *Output, history,freq=10
  *element output

 ***NOTE: MPCS (EXTERNAL or INTERNAL, including those generated from rigid body 
          definitions), KINEMATIC COUPLINGS, AND/OR EQUATIONS WILL ACTIVATE 
          ADDITIONAL DEGREES OF FREEDOM
  *Step, name=Step-1, nlgeom=YES, inc=10000
  *Output, field,freq=10
  *Output, history,freq=10
  *Step, name=Step-1, nlgeom=YES, inc=10000
  *Step, name=Step-1, nlgeom=YES, inc=10000
  *Static
  *CONTROLS,PARAMETERS=TIME INCREMENTATION
  *Boundary,amp=ramp1
  *Output, field,freq=10
  *element output
  *node output
  *Output, history,freq=10
  *node output,nset=disp
  *End Step
  *Step, name=Step-1, nlgeom=YES, inc=10000
  *Static
  *Boundary,amp=ramp1
  *End Step
1

   Abaqus 2021.HF9                                  Date 15-Mar-2022   Time 17:09:18
   For use by REGENTS OF THE UNIVERSITY OF COLORADO under license from Dassault Systemes or its subsidiary.

          Model II crack propagation with XFEM with full integrate stations          


                              E L E M E N T   D E F I N I T I O N S

       NUMBER   TYPE    PROPERTY    NODES FORMING ELEMENT
                        REFERENCE

          1   CPE4          1          1         2        33        32
          2   CPE4          1          2         3        34        33
          3   CPE4          1          3         4        35        34
          4   CPE4          1          4         5        36        35
          5   CPE4          1          5         6        37        36
          6   CPE4          1          6         7        38        37
          7   CPE4          1          7         8        39        38
          8   CPE4          1          8         9        40        39
          9   CPE4          1          9        10        41        40
         10   CPE4          1         10        11        42        41
         11   CPE4          1         11        12        43        42
         12   CPE4          1         12        13        44        43
         13   CPE4          1         13        14        45        44
         14   CPE4          1         14        15        46        45
         15   CPE4          1         15        16        47        46
         16   CPE4          1         16        17        48        47
         17   CPE4          1         17        18        49        48
         18   CPE4          1         18        19        50        49
         19   CPE4          1         19        20        51        50
         20   CPE4          1         20        21        52        51
         21   CPE4          1         21        22        53        52
         22   CPE4          1         22        23        54        53
         23   CPE4          1         23        24        55        54
         24   CPE4          1         24        25        56        55
         25   CPE4          1         25        26        57        56
         26   CPE4          1         26        27        58        57
         27   CPE4          1         27        28        59        58
         28   CPE4          1         28        29        60        59
         29   CPE4          1         29        30        61        60
         30   CPE4          1         30        31        62        61
         31   CPE4          1         32        33        64        63
         32   CPE4          1         33        34        65        64
         33   CPE4          1         34        35        66        65
         34   CPE4          1         35        36        67        66
         35   CPE4          1         36        37        68        67
         36   CPE4          1         37        38        69        68
         37   CPE4          1         38        39        70        69
         38   CPE4          1         39        40        71        70
         39   CPE4          1         40        41        72        71
         40   CPE4          1         41        42        73        72
         41   CPE4          1         42        43        74        73
         42   CPE4          1         43        44        75        74
         43   CPE4          1         44        45        76        75
         44   CPE4          1         45        46        77        76
         45   CPE4          1         46        47        78        77
         46   CPE4          1         47        48        79        78
         47   CPE4          1         48        49        80        79
         48   CPE4          1         49        50        81        80
         49   CPE4          1         50        51        82        81
         50   CPE4          1         51        52        83        82
         51   CPE4          1         52        53        84        83
         52   CPE4          1         53        54        85        84
         53   CPE4          1         54        55        86        85
         54   CPE4          1         55        56        87        86
         55   CPE4          1         56        57        88        87
         56   CPE4          1         57        58        89        88
         57   CPE4          1         58        59        90        89
         58   CPE4          1         59        60        91        90
         59   CPE4          1         60        61        92        91
         60   CPE4          1         61        62        93        92
         61   CPE4          1         63        64        95        94
         62   CPE4          1         64        65        96        95
         63   CPE4          1         65        66        97        96
         64   CPE4          1         66        67        98        97
         65   CPE4          1         67        68        99        98
         66   CPE4          1         68        69       100        99
         67   CPE4          1         69        70       101       100
         68   CPE4          1         70        71       102       101
         69   CPE4          1         71        72       103       102
         70   CPE4          1         72        73       104       103
         71   CPE4          1         73        74       105       104
         72   CPE4          1         74        75       106       105
         73   CPE4          1         75        76       107       106
         74   CPE4          1         76        77       108       107
         75   CPE4          1         77        78       109       108
         76   CPE4          1         78        79       110       109
         77   CPE4          1         79        80       111       110
         78   CPE4          1         80        81       112       111
         79   CPE4          1         81        82       113       112
         80   CPE4          1         82        83       114       113
         81   CPE4          1         83        84       115       114
         82   CPE4          1         84        85       116       115
         83   CPE4          1         85        86       117       116
         84   CPE4          1         86        87       118       117
         85   CPE4          1         87        88       119       118
         86   CPE4          1         88        89       120       119
         87   CPE4          1         89        90       121       120
         88   CPE4          1         90        91       122       121
         89   CPE4          1         91        92       123       122
         90   CPE4          1         92        93       124       123
         91   CPE4          1         94        95       126       125
         92   CPE4          1         95        96       127       126
         93   CPE4          1         96        97       128       127
         94   CPE4          1         97        98       129       128
         95   CPE4          1         98        99       130       129
         96   CPE4          1         99       100       131       130
         97   CPE4          1        100       101       132       131
         98   CPE4          1        101       102       133       132
         99   CPE4          1        102       103       134       133
        100   CPE4          1        103       104       135       134
        101   CPE4          1        104       105       136       135
        102   CPE4          1        105       106       137       136
        103   CPE4          1        106       107       138       137
        104   CPE4          1        107       108       139       138
        105   CPE4          1        108       109       140       139
        106   CPE4          1        109       110       141       140
        107   CPE4          1        110       111       142       141
        108   CPE4          1        111       112       143       142
        109   CPE4          1        112       113       144       143
        110   CPE4          1        113       114       145       144
        111   CPE4          1        114       115       146       145
        112   CPE4          1        115       116       147       146
        113   CPE4          1        116       117       148       147
        114   CPE4          1        117       118       149       148
        115   CPE4          1        118       119       150       149
        116   CPE4          1        119       120       151       150
        117   CPE4          1        120       121       152       151
        118   CPE4          1        121       122       153       152
        119   CPE4          1        122       123       154       153
        120   CPE4          1        123       124       155       154
        121   CPE4          1        125       126       157       156
        122   CPE4          1        126       127       158       157
        123   CPE4          1        127       128       159       158
        124   CPE4          1        128       129       160       159
        125   CPE4          1        129       130       161       160
        126   CPE4          1        130       131       162       161
        127   CPE4          1        131       132       163       162
        128   CPE4          1        132       133       164       163
        129   CPE4          1        133       134       165       164
        130   CPE4          1        134       135       166       165
        131   CPE4          1        135       136       167       166
        132   CPE4          1        136       137       168       167
        133   CPE4          1        137       138       169       168
        134   CPE4          1        138       139       170       169
        135   CPE4          1        139       140       171       170
        136   CPE4          1        140       141       172       171
        137   CPE4          1        141       142       173       172
        138   CPE4          1        142       143       174       173
        139   CPE4          1        143       144       175       174
        140   CPE4          1        144       145       176       175
        141   CPE4          1        145       146       177       176
        142   CPE4          1        146       147       178       177
        143   CPE4          1        147       148       179       178
        144   CPE4          1        148       149       180       179
        145   CPE4          1        149       150       181       180
        146   CPE4          1        150       151       182       181
        147   CPE4          1        151       152       183       182
        148   CPE4          1        152       153       184       183
        149   CPE4          1        153       154       185       184
        150   CPE4          1        154       155       186       185
        151   CPE4          1        156       157       188       187
        152   CPE4          1        157       158       189       188
        153   CPE4          1        158       159       190       189
        154   CPE4          1        159       160       191       190
        155   CPE4          1        160       161       192       191
        156   CPE4          1        161       162       193       192
        157   CPE4          1        162       163       194       193
        158   CPE4          1        163       164       195       194
        159   CPE4          1        164       165       196       195
        160   CPE4          1        165       166       197       196
        161   CPE4          1        166       167       198       197
        162   CPE4          1        167       168       199       198
        163   CPE4          1        168       169       200       199
        164   CPE4          1        169       170       201       200
        165   CPE4          1        170       171       202       201
        166   CPE4          1        171       172       203       202
        167   CPE4          1        172       173       204       203
        168   CPE4          1        173       174       205       204
        169   CPE4          1        174       175       206       205
        170   CPE4          1        175       176       207       206
        171   CPE4          1        176       177       208       207
        172   CPE4          1        177       178       209       208
        173   CPE4          1        178       179       210       209
        174   CPE4          1        179       180       211       210
        175   CPE4          1        180       181       212       211
        176   CPE4          1        181       182       213       212
        177   CPE4          1        182       183       214       213
        178   CPE4          1        183       184       215       214
        179   CPE4          1        184       185       216       215
        180   CPE4          1        185       186       217       216
        181   CPE4          1        187       188       219       218
        182   CPE4          1        188       189       220       219
        183   CPE4          1        189       190       221       220
        184   CPE4          1        190       191       222       221
        185   CPE4          1        191       192       223       222
        186   CPE4          1        192       193       224       223
        187   CPE4          1        193       194       225       224
        188   CPE4          1        194       195       226       225
        189   CPE4          1        195       196       227       226
        190   CPE4          1        196       197       228       227
        191   CPE4          1        197       198       229       228
        192   CPE4          1        198       199       230       229
        193   CPE4          1        199       200       231       230
        194   CPE4          1        200       201       232       231
        195   CPE4          1        201       202       233       232
        196   CPE4          1        202       203       234       233
        197   CPE4          1        203       204       235       234
        198   CPE4          1        204       205       236       235
        199   CPE4          1        205       206       237       236
        200   CPE4          1        206       207       238       237
        201   CPE4          1        207       208       239       238
        202   CPE4          1        208       209       240       239
        203   CPE4          1        209       210       241       240
        204   CPE4          1        210       211       242       241
        205   CPE4          1        211       212       243       242
        206   CPE4          1        212       213       244       243
        207   CPE4          1        213       214       245       244
        208   CPE4          1        214       215       246       245
        209   CPE4          1        215       216       247       246
        210   CPE4          1        216       217       248       247
        211   CPE4          1        218       219       250       249
        212   CPE4          1        219       220       251       250
        213   CPE4          1        220       221       252       251
        214   CPE4          1        221       222       253       252
        215   CPE4          1        222       223       254       253
        216   CPE4          1        223       224       255       254
        217   CPE4          1        224       225       256       255
        218   CPE4          1        225       226       257       256
        219   CPE4          1        226       227       258       257
        220   CPE4          1        227       228       259       258
        221   CPE4          1        228       229       260       259
        222   CPE4          1        229       230       261       260
        223   CPE4          1        230       231       262       261
        224   CPE4          1        231       232       263       262
        225   CPE4          1        232       233       264       263
        226   CPE4          1        233       234       265       264
        227   CPE4          1        234       235       266       265
        228   CPE4          1        235       236       267       266
        229   CPE4          1        236       237       268       267
        230   CPE4          1        237       238       269       268
        231   CPE4          1        238       239       270       269
        232   CPE4          1        239       240       271       270
        233   CPE4          1        240       241       272       271
        234   CPE4          1        241       242       273       272
        235   CPE4          1        242       243       274       273
        236   CPE4          1        243       244       275       274
        237   CPE4          1        244       245       276       275
        238   CPE4          1        245       246       277       276
        239   CPE4          1        246       247       278       277
        240   CPE4          1        247       248       279       278
        241   CPE4          1        249       250       281       280
        242   CPE4          1        250       251       282       281
        243   CPE4          1        251       252       283       282
        244   CPE4          1        252       253       284       283
        245   CPE4          1        253       254       285       284
        246   CPE4          1        254       255       286       285
        247   CPE4          1        255       256       287       286
        248   CPE4          1        256       257       288       287
        249   CPE4          1        257       258       289       288
        250   CPE4          1        258       259       290       289
        251   CPE4          1        259       260       291       290
        252   CPE4          1        260       261       292       291
        253   CPE4          1        261       262       293       292
        254   CPE4          1        262       263       294       293
        255   CPE4          1        263       264       295       294
        256   CPE4          1        264       265       296       295
        257   CPE4          1        265       266       297       296
        258   CPE4          1        266       267       298       297
        259   CPE4          1        267       268       299       298
        260   CPE4          1        268       269       300       299
        261   CPE4          1        269       270       301       300
        262   CPE4          1        270       271       302       301
        263   CPE4          1        271       272       303       302
        264   CPE4          1        272       273       304       303
        265   CPE4          1        273       274       305       304
        266   CPE4          1        274       275       306       305
        267   CPE4          1        275       276       307       306
        268   CPE4          1        276       277       308       307
        269   CPE4          1        277       278       309       308
        270   CPE4          1        278       279       310       309
        271   CPE4          1        280       281       312       311
        272   CPE4          1        281       282       313       312
        273   CPE4          1        282       283       314       313
        274   CPE4          1        283       284       315       314
        275   CPE4          1        284       285       316       315
        276   CPE4          1        285       286       317       316
        277   CPE4          1        286       287       318       317
        278   CPE4          1        287       288       319       318
        279   CPE4          1        288       289       320       319
        280   CPE4          1        289       290       321       320
        281   CPE4          1        290       291       322       321
        282   CPE4          1        291       292       323       322
        283   CPE4          1        292       293       324       323
        284   CPE4          1        293       294       325       324
        285   CPE4          1        294       295       326       325
        286   CPE4          1        295       296       327       326
        287   CPE4          1        296       297       328       327
        288   CPE4          1        297       298       329       328
        289   CPE4          1        298       299       330       329
        290   CPE4          1        299       300       331       330
        291   CPE4          1        300       301       332       331
        292   CPE4          1        301       302       333       332
        293   CPE4          1        302       303       334       333
        294   CPE4          1        303       304       335       334
        295   CPE4          1        304       305       336       335
        296   CPE4          1        305       306       337       336
        297   CPE4          1        306       307       338       337
        298   CPE4          1        307       308       339       338
        299   CPE4          1        308       309       340       339
        300   CPE4          1        309       310       341       340
        301   CPE4          1        311       312       343       342
        302   CPE4          1        312       313       344       343
        303   CPE4          1        313       314       345       344
        304   CPE4          1        314       315       346       345
        305   CPE4          1        315       316       347       346
        306   CPE4          1        316       317       348       347
        307   CPE4          1        317       318       349       348
        308   CPE4          1        318       319       350       349
        309   CPE4          1        319       320       351       350
        310   CPE4          1        320       321       352       351
        311   CPE4          1        321       322       353       352
        312   CPE4          1        322       323       354       353
        313   CPE4          1        323       324       355       354
        314   CPE4          1        324       325       356       355
        315   CPE4          1        325       326       357       356
        316   CPE4          1        326       327       358       357
        317   CPE4          1        327       328       359       358
        318   CPE4          1        328       329       360       359
        319   CPE4          1        329       330       361       360
        320   CPE4          1        330       331       362       361
        321   CPE4          1        331       332       363       362
        322   CPE4          1        332       333       364       363
        323   CPE4          1        333       334       365       364
        324   CPE4          1        334       335       366       365
        325   CPE4          1        335       336       367       366
        326   CPE4          1        336       337       368       367
        327   CPE4          1        337       338       369       368
        328   CPE4          1        338       339       370       369
        329   CPE4          1        339       340       371       370
        330   CPE4          1        340       341       372       371
        331   CPE4          1        342       343       374       373
        332   CPE4          1        343       344       375       374
        333   CPE4          1        344       345       376       375
        334   CPE4          1        345       346       377       376
        335   CPE4          1        346       347       378       377
        336   CPE4          1        347       348       379       378
        337   CPE4          1        348       349       380       379
        338   CPE4          1        349       350       381       380
        339   CPE4          1        350       351       382       381
        340   CPE4          1        351       352       383       382
        341   CPE4          1        352       353       384       383
        342   CPE4          1        353       354       385       384
        343   CPE4          1        354       355       386       385
        344   CPE4          1        355       356       387       386
        345   CPE4          1        356       357       388       387
        346   CPE4          1        357       358       389       388
        347   CPE4          1        358       359       390       389
        348   CPE4          1        359       360       391       390
        349   CPE4          1        360       361       392       391
        350   CPE4          1        361       362       393       392
        351   CPE4          1        362       363       394       393
        352   CPE4          1        363       364       395       394
        353   CPE4          1        364       365       396       395
        354   CPE4          1        365       366       397       396
        355   CPE4          1        366       367       398       397
        356   CPE4          1        367       368       399       398
        357   CPE4          1        368       369       400       399
        358   CPE4          1        369       370       401       400
        359   CPE4          1        370       371       402       401
        360   CPE4          1        371       372       403       402
        361   CPE4          1        373       374       405       404
        362   CPE4          1        374       375       406       405
        363   CPE4          1        375       376       407       406
        364   CPE4          1        376       377       408       407
        365   CPE4          1        377       378       409       408
        366   CPE4          1        378       379       410       409
        367   CPE4          1        379       380       411       410
        368   CPE4          1        380       381       412       411
        369   CPE4          1        381       382       413       412
        370   CPE4          1        382       383       414       413
        371   CPE4          1        383       384       415       414
        372   CPE4          1        384       385       416       415
        373   CPE4          1        385       386       417       416
        374   CPE4          1        386       387       418       417
        375   CPE4          1        387       388       419       418
        376   CPE4          1        388       389       420       419
        377   CPE4          1        389       390       421       420
        378   CPE4          1        390       391       422       421
        379   CPE4          1        391       392       423       422
        380   CPE4          1        392       393       424       423
        381   CPE4          1        393       394       425       424
        382   CPE4          1        394       395       426       425
        383   CPE4          1        395       396       427       426
        384   CPE4          1        396       397       428       427
        385   CPE4          1        397       398       429       428
        386   CPE4          1        398       399       430       429
        387   CPE4          1        399       400       431       430
        388   CPE4          1        400       401       432       431
        389   CPE4          1        401       402       433       432
        390   CPE4          1        402       403       434       433
        391   CPE4          1        404       405       436       435
        392   CPE4          1        405       406       437       436
        393   CPE4          1        406       407       438       437
        394   CPE4          1        407       408       439       438
        395   CPE4          1        408       409       440       439
        396   CPE4          1        409       410       441       440
        397   CPE4          1        410       411       442       441
        398   CPE4          1        411       412       443       442
        399   CPE4          1        412       413       444       443
        400   CPE4          1        413       414       445       444
        401   CPE4          1        414       415       446       445
        402   CPE4          1        415       416       447       446
        403   CPE4          1        416       417       448       447
        404   CPE4          1        417       418       449       448
        405   CPE4          1        418       419       450       449
        406   CPE4          1        419       420       451       450
        407   CPE4          1        420       421       452       451
        408   CPE4          1        421       422       453       452
        409   CPE4          1        422       423       454       453
        410   CPE4          1        423       424       455       454
        411   CPE4          1        424       425       456       455
        412   CPE4          1        425       426       457       456
        413   CPE4          1        426       427       458       457
        414   CPE4          1        427       428       459       458
        415   CPE4          1        428       429       460       459
        416   CPE4          1        429       430       461       460
        417   CPE4          1        430       431       462       461
        418   CPE4          1        431       432       463       462
        419   CPE4          1        432       433       464       463
        420   CPE4          1        433       434       465       464
        421   CPE4          1        435       436       467       466
        422   CPE4          1        436       437       468       467
        423   CPE4          1        437       438       469       468
        424   CPE4          1        438       439       470       469
        425   CPE4          1        439       440       471       470
        426   CPE4          1        440       441       472       471
        427   CPE4          1        441       442       473       472
        428   CPE4          1        442       443       474       473
        429   CPE4          1        443       444       475       474
        430   CPE4          1        444       445       476       475
        431   CPE4          1        445       446       477       476
        432   CPE4          1        446       447       478       477
        433   CPE4          1        447       448       479       478
        434   CPE4          1        448       449       480       479
        435   CPE4          1        449       450       481       480
        436   CPE4          1        450       451       482       481
        437   CPE4          1        451       452       483       482
        438   CPE4          1        452       453       484       483
        439   CPE4          1        453       454       485       484
        440   CPE4          1        454       455       486       485
        441   CPE4          1        455       456       487       486
        442   CPE4          1        456       457       488       487
        443   CPE4          1        457       458       489       488
        444   CPE4          1        458       459       490       489
        445   CPE4          1        459       460       491       490
        446   CPE4          1        460       461       492       491
        447   CPE4          1        461       462       493       492
        448   CPE4          1        462       463       494       493
        449   CPE4          1        463       464       495       494
        450   CPE4          1        464       465       496       495
        451   CPE4          1        466       467       498       497
        452   CPE4          1        467       468       499       498
        453   CPE4          1        468       469       500       499
        454   CPE4          1        469       470       501       500
        455   CPE4          1        470       471       502       501
        456   CPE4          1        471       472       503       502
        457   CPE4          1        472       473       504       503
        458   CPE4          1        473       474       505       504
        459   CPE4          1        474       475       506       505
        460   CPE4          1        475       476       507       506
        461   CPE4          1        476       477       508       507
        462   CPE4          1        477       478       509       508
        463   CPE4          1        478       479       510       509
        464   CPE4          1        479       480       511       510
        465   CPE4          1        480       481       512       511
        466   CPE4          1        481       482       513       512
        467   CPE4          1        482       483       514       513
        468   CPE4          1        483       484       515       514
        469   CPE4          1        484       485       516       515
        470   CPE4          1        485       486       517       516
        471   CPE4          1        486       487       518       517
        472   CPE4          1        487       488       519       518
        473   CPE4          1        488       489       520       519
        474   CPE4          1        489       490       521       520
        475   CPE4          1        490       491       522       521
        476   CPE4          1        491       492       523       522
        477   CPE4          1        492       493       524       523
        478   CPE4          1        493       494       525       524
        479   CPE4          1        494       495       526       525
        480   CPE4          1        495       496       527       526
        481   CPE4          1        497       498       529       528
        482   CPE4          1        498       499       530       529
        483   CPE4          1        499       500       531       530
        484   CPE4          1        500       501       532       531
        485   CPE4          1        501       502       533       532
        486   CPE4          1        502       503       534       533
        487   CPE4          1        503       504       535       534
        488   CPE4          1        504       505       536       535
        489   CPE4          1        505       506       537       536
        490   CPE4          1        506       507       538       537
        491   CPE4          1        507       508       539       538
        492   CPE4          1        508       509       540       539
        493   CPE4          1        509       510       541       540
        494   CPE4          1        510       511       542       541
        495   CPE4          1        511       512       543       542
        496   CPE4          1        512       513       544       543
        497   CPE4          1        513       514       545       544
        498   CPE4          1        514       515       546       545
        499   CPE4          1        515       516       547       546
        500   CPE4          1        516       517       548       547
        501   CPE4          1        517       518       549       548
        502   CPE4          1        518       519       550       549
        503   CPE4          1        519       520       551       550
        504   CPE4          1        520       521       552       551
        505   CPE4          1        521       522       553       552
        506   CPE4          1        522       523       554       553
        507   CPE4          1        523       524       555       554
        508   CPE4          1        524       525       556       555
        509   CPE4          1        525       526       557       556
        510   CPE4          1        526       527       558       557
        511   CPE4          1        528       529       560       559
        512   CPE4          1        529       530       561       560
        513   CPE4          1        530       531       562       561
        514   CPE4          1        531       532       563       562
        515   CPE4          1        532       533       564       563
        516   CPE4          1        533       534       565       564
        517   CPE4          1        534       535       566       565
        518   CPE4          1        535       536       567       566
        519   CPE4          1        536       537       568       567
        520   CPE4          1        537       538       569       568
        521   CPE4          1        538       539       570       569
        522   CPE4          1        539       540       571       570
        523   CPE4          1        540       541       572       571
        524   CPE4          1        541       542       573       572
        525   CPE4          1        542       543       574       573
        526   CPE4          1        543       544       575       574
        527   CPE4          1        544       545       576       575
        528   CPE4          1        545       546       577       576
        529   CPE4          1        546       547       578       577
        530   CPE4          1        547       548       579       578
        531   CPE4          1        548       549       580       579
        532   CPE4          1        549       550       581       580
        533   CPE4          1        550       551       582       581
        534   CPE4          1        551       552       583       582
        535   CPE4          1        552       553       584       583
        536   CPE4          1        553       554       585       584
        537   CPE4          1        554       555       586       585
        538   CPE4          1        555       556       587       586
        539   CPE4          1        556       557       588       587
        540   CPE4          1        557       558       589       588
        541   CPE4          1        559       560       591       590
        542   CPE4          1        560       561       592       591
        543   CPE4          1        561       562       593       592
        544   CPE4          1        562       563       594       593
        545   CPE4          1        563       564       595       594
        546   CPE4          1        564       565       596       595
        547   CPE4          1        565       566       597       596
        548   CPE4          1        566       567       598       597
        549   CPE4          1        567       568       599       598
        550   CPE4          1        568       569       600       599
        551   CPE4          1        569       570       601       600
        552   CPE4          1        570       571       602       601
        553   CPE4          1        571       572       603       602
        554   CPE4          1        572       573       604       603
        555   CPE4          1        573       574       605       604
        556   CPE4          1        574       575       606       605
        557   CPE4          1        575       576       607       606
        558   CPE4          1        576       577       608       607
        559   CPE4          1        577       578       609       608
        560   CPE4          1        578       579       610       609
        561   CPE4          1        579       580       611       610
        562   CPE4          1        580       581       612       611
        563   CPE4          1        581       582       613       612
        564   CPE4          1        582       583       614       613
        565   CPE4          1        583       584       615       614
        566   CPE4          1        584       585       616       615
        567   CPE4          1        585       586       617       616
        568   CPE4          1        586       587       618       617
        569   CPE4          1        587       588       619       618
        570   CPE4          1        588       589       620       619
        571   CPE4          1        590       591       622       621
        572   CPE4          1        591       592       623       622
        573   CPE4          1        592       593       624       623
        574   CPE4          1        593       594       625       624
        575   CPE4          1        594       595       626       625
        576   CPE4          1        595       596       627       626
        577   CPE4          1        596       597       628       627
        578   CPE4          1        597       598       629       628
        579   CPE4          1        598       599       630       629
        580   CPE4          1        599       600       631       630
        581   CPE4          1        600       601       632       631
        582   CPE4          1        601       602       633       632
        583   CPE4          1        602       603       634       633
        584   CPE4          1        603       604       635       634
        585   CPE4          1        604       605       636       635
        586   CPE4          1        605       606       637       636
        587   CPE4          1        606       607       638       637
        588   CPE4          1        607       608       639       638
        589   CPE4          1        608       609       640       639
        590   CPE4          1        609       610       641       640
        591   CPE4          1        610       611       642       641
        592   CPE4          1        611       612       643       642
        593   CPE4          1        612       613       644       643
        594   CPE4          1        613       614       645       644
        595   CPE4          1        614       615       646       645
        596   CPE4          1        615       616       647       646
        597   CPE4          1        616       617       648       647
        598   CPE4          1        617       618       649       648
        599   CPE4          1        618       619       650       649
        600   CPE4          1        619       620       651       650
        601   CPE4          1        621       622       653       652
        602   CPE4          1        622       623       654       653
        603   CPE4          1        623       624       655       654
        604   CPE4          1        624       625       656       655
        605   CPE4          1        625       626       657       656
        606   CPE4          1        626       627       658       657
        607   CPE4          1        627       628       659       658
        608   CPE4          1        628       629       660       659
        609   CPE4          1        629       630       661       660
        610   CPE4          1        630       631       662       661
        611   CPE4          1        631       632       663       662
        612   CPE4          1        632       633       664       663
        613   CPE4          1        633       634       665       664
        614   CPE4          1        634       635       666       665
        615   CPE4          1        635       636       667       666
        616   CPE4          1        636       637       668       667
        617   CPE4          1        637       638       669       668
        618   CPE4          1        638       639       670       669
        619   CPE4          1        639       640       671       670
        620   CPE4          1        640       641       672       671
        621   CPE4          1        641       642       673       672
        622   CPE4          1        642       643       674       673
        623   CPE4          1        643       644       675       674
        624   CPE4          1        644       645       676       675
        625   CPE4          1        645       646       677       676
        626   CPE4          1        646       647       678       677
        627   CPE4          1        647       648       679       678
        628   CPE4          1        648       649       680       679
        629   CPE4          1        649       650       681       680
        630   CPE4          1        650       651       682       681
        631   CPE4          1        652       653       684       683
        632   CPE4          1        653       654       685       684
        633   CPE4          1        654       655       686       685
        634   CPE4          1        655       656       687       686
        635   CPE4          1        656       657       688       687
        636   CPE4          1        657       658       689       688
        637   CPE4          1        658       659       690       689
        638   CPE4          1        659       660       691       690
        639   CPE4          1        660       661       692       691
        640   CPE4          1        661       662       693       692
        641   CPE4          1        662       663       694       693
        642   CPE4          1        663       664       695       694
        643   CPE4          1        664       665       696       695
        644   CPE4          1        665       666       697       696
        645   CPE4          1        666       667       698       697
        646   CPE4          1        667       668       699       698
        647   CPE4          1        668       669       700       699
        648   CPE4          1        669       670       701       700
        649   CPE4          1        670       671       702       701
        650   CPE4          1        671       672       703       702
        651   CPE4          1        672       673       704       703
        652   CPE4          1        673       674       705       704
        653   CPE4          1        674       675       706       705
        654   CPE4          1        675       676       707       706
        655   CPE4          1        676       677       708       707
        656   CPE4          1        677       678       709       708
        657   CPE4          1        678       679       710       709
        658   CPE4          1        679       680       711       710
        659   CPE4          1        680       681       712       711
        660   CPE4          1        681       682       713       712
        661   CPE4          1        683       684       715       714
        662   CPE4          1        684       685       716       715
        663   CPE4          1        685       686       717       716
        664   CPE4          1        686       687       718       717
        665   CPE4          1        687       688       719       718
        666   CPE4          1        688       689       720       719
        667   CPE4          1        689       690       721       720
        668   CPE4          1        690       691       722       721
        669   CPE4          1        691       692       723       722
        670   CPE4          1        692       693       724       723
        671   CPE4          1        693       694       725       724
        672   CPE4          1        694       695       726       725
        673   CPE4          1        695       696       727       726
        674   CPE4          1        696       697       728       727
        675   CPE4          1        697       698       729       728
        676   CPE4          1        698       699       730       729
        677   CPE4          1        699       700       731       730
        678   CPE4          1        700       701       732       731
        679   CPE4          1        701       702       733       732
        680   CPE4          1        702       703       734       733
        681   CPE4          1        703       704       735       734
        682   CPE4          1        704       705       736       735
        683   CPE4          1        705       706       737       736
        684   CPE4          1        706       707       738       737
        685   CPE4          1        707       708       739       738
        686   CPE4          1        708       709       740       739
        687   CPE4          1        709       710       741       740
        688   CPE4          1        710       711       742       741
        689   CPE4          1        711       712       743       742
        690   CPE4          1        712       713       744       743
        691   CPE4          1        714       715       746       745
        692   CPE4          1        715       716       747       746
        693   CPE4          1        716       717       748       747
        694   CPE4          1        717       718       749       748
        695   CPE4          1        718       719       750       749
        696   CPE4          1        719       720       751       750
        697   CPE4          1        720       721       752       751
        698   CPE4          1        721       722       753       752
        699   CPE4          1        722       723       754       753
        700   CPE4          1        723       724       755       754
        701   CPE4          1        724       725       756       755
        702   CPE4          1        725       726       757       756
        703   CPE4          1        726       727       758       757
        704   CPE4          1        727       728       759       758
        705   CPE4          1        728       729       760       759
        706   CPE4          1        729       730       761       760
        707   CPE4          1        730       731       762       761
        708   CPE4          1        731       732       763       762
        709   CPE4          1        732       733       764       763
        710   CPE4          1        733       734       765       764
        711   CPE4          1        734       735       766       765
        712   CPE4          1        735       736       767       766
        713   CPE4          1        736       737       768       767
        714   CPE4          1        737       738       769       768
        715   CPE4          1        738       739       770       769
        716   CPE4          1        739       740       771       770
        717   CPE4          1        740       741       772       771
        718   CPE4          1        741       742       773       772
        719   CPE4          1        742       743       774       773
        720   CPE4          1        743       744       775       774
        721   CPE4          1        745       746       777       776
        722   CPE4          1        746       747       778       777
        723   CPE4          1        747       748       779       778
        724   CPE4          1        748       749       780       779
        725   CPE4          1        749       750       781       780
        726   CPE4          1        750       751       782       781
        727   CPE4          1        751       752       783       782
        728   CPE4          1        752       753       784       783
        729   CPE4          1        753       754       785       784
        730   CPE4          1        754       755       786       785
        731   CPE4          1        755       756       787       786
        732   CPE4          1        756       757       788       787
        733   CPE4          1        757       758       789       788
        734   CPE4          1        758       759       790       789
        735   CPE4          1        759       760       791       790
        736   CPE4          1        760       761       792       791
        737   CPE4          1        761       762       793       792
        738   CPE4          1        762       763       794       793
        739   CPE4          1        763       764       795       794
        740   CPE4          1        764       765       796       795
        741   CPE4          1        765       766       797       796
        742   CPE4          1        766       767       798       797
        743   CPE4          1        767       768       799       798
        744   CPE4          1        768       769       800       799
        745   CPE4          1        769       770       801       800
        746   CPE4          1        770       771       802       801
        747   CPE4          1        771       772       803       802
        748   CPE4          1        772       773       804       803
        749   CPE4          1        773       774       805       804
        750   CPE4          1        774       775       806       805
        751   CPE4          1        776       777       808       807
        752   CPE4          1        777       778       809       808
        753   CPE4          1        778       779       810       809
        754   CPE4          1        779       780       811       810
        755   CPE4          1        780       781       812       811
        756   CPE4          1        781       782       813       812
        757   CPE4          1        782       783       814       813
        758   CPE4          1        783       784       815       814
        759   CPE4          1        784       785       816       815
        760   CPE4          1        785       786       817       816
        761   CPE4          1        786       787       818       817
        762   CPE4          1        787       788       819       818
        763   CPE4          1        788       789       820       819
        764   CPE4          1        789       790       821       820
        765   CPE4          1        790       791       822       821
        766   CPE4          1        791       792       823       822
        767   CPE4          1        792       793       824       823
        768   CPE4          1        793       794       825       824
        769   CPE4          1        794       795       826       825
        770   CPE4          1        795       796       827       826
        771   CPE4          1        796       797       828       827
        772   CPE4          1        797       798       829       828
        773   CPE4          1        798       799       830       829
        774   CPE4          1        799       800       831       830
        775   CPE4          1        800       801       832       831
        776   CPE4          1        801       802       833       832
        777   CPE4          1        802       803       834       833
        778   CPE4          1        803       804       835       834
        779   CPE4          1        804       805       836       835
        780   CPE4          1        805       806       837       836
        781   CPE4          1        807       808       839       838
        782   CPE4          1        808       809       840       839
        783   CPE4          1        809       810       841       840
        784   CPE4          1        810       811       842       841
        785   CPE4          1        811       812       843       842
        786   CPE4          1        812       813       844       843
        787   CPE4          1        813       814       845       844
        788   CPE4          1        814       815       846       845
        789   CPE4          1        815       816       847       846
        790   CPE4          1        816       817       848       847
        791   CPE4          1        817       818       849       848
        792   CPE4          1        818       819       850       849
        793   CPE4          1        819       820       851       850
        794   CPE4          1        820       821       852       851
        795   CPE4          1        821       822       853       852
        796   CPE4          1        822       823       854       853
        797   CPE4          1        823       824       855       854
        798   CPE4          1        824       825       856       855
        799   CPE4          1        825       826       857       856
        800   CPE4          1        826       827       858       857
        801   CPE4          1        827       828       859       858
        802   CPE4          1        828       829       860       859
        803   CPE4          1        829       830       861       860
        804   CPE4          1        830       831       862       861
        805   CPE4          1        831       832       863       862
        806   CPE4          1        832       833       864       863
        807   CPE4          1        833       834       865       864
        808   CPE4          1        834       835       866       865
        809   CPE4          1        835       836       867       866
        810   CPE4          1        836       837       868       867
        811   CPE4          1        838       839       870       869
        812   CPE4          1        839       840       871       870
        813   CPE4          1        840       841       872       871
        814   CPE4          1        841       842       873       872
        815   CPE4          1        842       843       874       873
        816   CPE4          1        843       844       875       874
        817   CPE4          1        844       845       876       875
        818   CPE4          1        845       846       877       876
        819   CPE4          1        846       847       878       877
        820   CPE4          1        847       848       879       878
        821   CPE4          1        848       849       880       879
        822   CPE4          1        849       850       881       880
        823   CPE4          1        850       851       882       881
        824   CPE4          1        851       852       883       882
        825   CPE4          1        852       853       884       883
        826   CPE4          1        853       854       885       884
        827   CPE4          1        854       855       886       885
        828   CPE4          1        855       856       887       886
        829   CPE4          1        856       857       888       887
        830   CPE4          1        857       858       889       888
        831   CPE4          1        858       859       890       889
        832   CPE4          1        859       860       891       890
        833   CPE4          1        860       861       892       891
        834   CPE4          1        861       862       893       892
        835   CPE4          1        862       863       894       893
        836   CPE4          1        863       864       895       894
        837   CPE4          1        864       865       896       895
        838   CPE4          1        865       866       897       896
        839   CPE4          1        866       867       898       897
        840   CPE4          1        867       868       899       898
        841   CPE4          1        869       870       901       900
        842   CPE4          1        870       871       902       901
        843   CPE4          1        871       872       903       902
        844   CPE4          1        872       873       904       903
        845   CPE4          1        873       874       905       904
        846   CPE4          1        874       875       906       905
        847   CPE4          1        875       876       907       906
        848   CPE4          1        876       877       908       907
        849   CPE4          1        877       878       909       908
        850   CPE4          1        878       879       910       909
        851   CPE4          1        879       880       911       910
        852   CPE4          1        880       881       912       911
        853   CPE4          1        881       882       913       912
        854   CPE4          1        882       883       914       913
        855   CPE4          1        883       884       915       914
        856   CPE4          1        884       885       916       915
        857   CPE4          1        885       886       917       916
        858   CPE4          1        886       887       918       917
        859   CPE4          1        887       888       919       918
        860   CPE4          1        888       889       920       919
        861   CPE4          1        889       890       921       920
        862   CPE4          1        890       891       922       921
        863   CPE4          1        891       892       923       922
        864   CPE4          1        892       893       924       923
        865   CPE4          1        893       894       925       924
        866   CPE4          1        894       895       926       925
        867   CPE4          1        895       896       927       926
        868   CPE4          1        896       897       928       927
        869   CPE4          1        897       898       929       928
        870   CPE4          1        898       899       930       929
        871   CPE4          1        900       901       932       931
        872   CPE4          1        901       902       933       932
        873   CPE4          1        902       903       934       933
        874   CPE4          1        903       904       935       934
        875   CPE4          1        904       905       936       935
        876   CPE4          1        905       906       937       936
        877   CPE4          1        906       907       938       937
        878   CPE4          1        907       908       939       938
        879   CPE4          1        908       909       940       939
        880   CPE4          1        909       910       941       940
        881   CPE4          1        910       911       942       941
        882   CPE4          1        911       912       943       942
        883   CPE4          1        912       913       944       943
        884   CPE4          1        913       914       945       944
        885   CPE4          1        914       915       946       945
        886   CPE4          1        915       916       947       946
        887   CPE4          1        916       917       948       947
        888   CPE4          1        917       918       949       948
        889   CPE4          1        918       919       950       949
        890   CPE4          1        919       920       951       950
        891   CPE4          1        920       921       952       951
        892   CPE4          1        921       922       953       952
        893   CPE4          1        922       923       954       953
        894   CPE4          1        923       924       955       954
        895   CPE4          1        924       925       956       955
        896   CPE4          1        925       926       957       956
        897   CPE4          1        926       927       958       957
        898   CPE4          1        927       928       959       958
        899   CPE4          1        928       929       960       959
        900   CPE4          1        929       930       961       960
        901   CPE4          1        931       932       963       962
        902   CPE4          1        932       933       964       963
        903   CPE4          1        933       934       965       964
        904   CPE4          1        934       935       966       965
        905   CPE4          1        935       936       967       966
        906   CPE4          1        936       937       968       967
        907   CPE4          1        937       938       969       968
        908   CPE4          1        938       939       970       969
        909   CPE4          1        939       940       971       970
        910   CPE4          1        940       941       972       971
        911   CPE4          1        941       942       973       972
        912   CPE4          1        942       943       974       973
        913   CPE4          1        943       944       975       974
        914   CPE4          1        944       945       976       975
        915   CPE4          1        945       946       977       976
        916   CPE4          1        946       947       978       977
        917   CPE4          1        947       948       979       978
        918   CPE4          1        948       949       980       979
        919   CPE4          1        949       950       981       980
        920   CPE4          1        950       951       982       981
        921   CPE4          1        951       952       983       982
        922   CPE4          1        952       953       984       983
        923   CPE4          1        953       954       985       984
        924   CPE4          1        954       955       986       985
        925   CPE4          1        955       956       987       986
        926   CPE4          1        956       957       988       987
        927   CPE4          1        957       958       989       988
        928   CPE4          1        958       959       990       989
        929   CPE4          1        959       960       991       990
        930   CPE4          1        960       961       992       991
        931   CPE4          1        962       963       994       993
        932   CPE4          1        963       964       995       994
        933   CPE4          1        964       965       996       995
        934   CPE4          1        965       966       997       996
        935   CPE4          1        966       967       998       997
        936   CPE4          1        967       968       999       998
        937   CPE4          1        968       969      1000       999
        938   CPE4          1        969       970      1001      1000
        939   CPE4          1        970       971      1002      1001
        940   CPE4          1        971       972      1003      1002
        941   CPE4          1        972       973      1004      1003
        942   CPE4          1        973       974      1005      1004
        943   CPE4          1        974       975      1006      1005
        944   CPE4          1        975       976      1007      1006
        945   CPE4          1        976       977      1008      1007
        946   CPE4          1        977       978      1009      1008
        947   CPE4          1        978       979      1010      1009
        948   CPE4          1        979       980      1011      1010
        949   CPE4          1        980       981      1012      1011
        950   CPE4          1        981       982      1013      1012
        951   CPE4          1        982       983      1014      1013
        952   CPE4          1        983       984      1015      1014
        953   CPE4          1        984       985      1016      1015
        954   CPE4          1        985       986      1017      1016
        955   CPE4          1        986       987      1018      1017
        956   CPE4          1        987       988      1019      1018
        957   CPE4          1        988       989      1020      1019
        958   CPE4          1        989       990      1021      1020
        959   CPE4          1        990       991      1022      1021
        960   CPE4          1        991       992      1023      1022
        961   CPE4          1        993       994      1025      1024
        962   CPE4          1        994       995      1026      1025
        963   CPE4          1        995       996      1027      1026
        964   CPE4          1        996       997      1028      1027
        965   CPE4          1        997       998      1029      1028
        966   CPE4          1        998       999      1030      1029
        967   CPE4          1        999      1000      1031      1030
        968   CPE4          1       1000      1001      1032      1031
        969   CPE4          1       1001      1002      1033      1032
        970   CPE4          1       1002      1003      1034      1033
        971   CPE4          1       1003      1004      1035      1034
        972   CPE4          1       1004      1005      1036      1035
        973   CPE4          1       1005      1006      1037      1036
        974   CPE4          1       1006      1007      1038      1037
        975   CPE4          1       1007      1008      1039      1038
        976   CPE4          1       1008      1009      1040      1039
        977   CPE4          1       1009      1010      1041      1040
        978   CPE4          1       1010      1011      1042      1041
        979   CPE4          1       1011      1012      1043      1042
        980   CPE4          1       1012      1013      1044      1043
        981   CPE4          1       1013      1014      1045      1044
        982   CPE4          1       1014      1015      1046      1045
        983   CPE4          1       1015      1016      1047      1046
        984   CPE4          1       1016      1017      1048      1047
        985   CPE4          1       1017      1018      1049      1048
        986   CPE4          1       1018      1019      1050      1049
        987   CPE4          1       1019      1020      1051      1050
        988   CPE4          1       1020      1021      1052      1051
        989   CPE4          1       1021      1022      1053      1052
        990   CPE4          1       1022      1023      1054      1053
        991   CPE4          1       1024      1025      1056      1055
        992   CPE4          1       1025      1026      1057      1056
        993   CPE4          1       1026      1027      1058      1057
        994   CPE4          1       1027      1028      1059      1058
        995   CPE4          1       1028      1029      1060      1059
        996   CPE4          1       1029      1030      1061      1060
        997   CPE4          1       1030      1031      1062      1061
        998   CPE4          1       1031      1032      1063      1062
        999   CPE4          1       1032      1033      1064      1063
       1000   CPE4          1       1033      1034      1065      1064
       1001   CPE4          1       1034      1035      1066      1065
       1002   CPE4          1       1035      1036      1067      1066
       1003   CPE4          1       1036      1037      1068      1067
       1004   CPE4          1       1037      1038      1069      1068
       1005   CPE4          1       1038      1039      1070      1069
       1006   CPE4          1       1039      1040      1071      1070
       1007   CPE4          1       1040      1041      1072      1071
       1008   CPE4          1       1041      1042      1073      1072
       1009   CPE4          1       1042      1043      1074      1073
       1010   CPE4          1       1043      1044      1075      1074
       1011   CPE4          1       1044      1045      1076      1075
       1012   CPE4          1       1045      1046      1077      1076
       1013   CPE4          1       1046      1047      1078      1077
       1014   CPE4          1       1047      1048      1079      1078
       1015   CPE4          1       1048      1049      1080      1079
       1016   CPE4          1       1049      1050      1081      1080
       1017   CPE4          1       1050      1051      1082      1081
       1018   CPE4          1       1051      1052      1083      1082
[...]
            907          ABC                   3        1.00       -0.800    
            907          ABC                   4        1.00       -0.900    
            908          ABC                   1       -1.00       -0.800    
            908          ABC                   2       -1.00       -0.700    
            908          ABC                   3        1.00       -0.700    
            908          ABC                   4        1.00       -0.800    
            909          ABC                   1       -1.00       -0.700    
            909          ABC                   2       -1.00       -0.600    
            909          ABC                   3        1.00       -0.600    
            909          ABC                   4        1.00       -0.700    
            910          ABC                   1       -1.00       -0.600    
            910          ABC                   2       -1.00       -0.500    
            910          ABC                   3        1.00       -0.500    
            910          ABC                   4        1.00       -0.600    
            911          ABC                   1       -1.00       -0.500    
            911          ABC                   2       -1.00       -0.400    
            911          ABC                   3        1.00       -0.400    
            911          ABC                   4        1.00       -0.500    
            912          ABC                   1       -1.00       -0.400    
            912          ABC                   2       -1.00       -0.300    
            912          ABC                   3        1.00       -0.300    
            912          ABC                   4        1.00       -0.400    
            913          ABC                   1       -1.00       -0.300    
            913          ABC                   2       -1.00       -0.200    
            913          ABC                   3        1.00       -0.200    
            913          ABC                   4        1.00       -0.300    
            914          ABC                   1       -1.00       -0.200    
            914          ABC                   2       -1.00       -0.100    
            914          ABC                   3        1.00       -0.100    
            914          ABC                   4        1.00       -0.200    
            915          ABC                   1       -1.00       -0.100    
            915          ABC                   2       -1.00         0.00    
            915          ABC                   3        1.00         0.00    
            915          ABC                   4        1.00       -0.100    
1

   Abaqus 2021.HF9                                  Date 15-Mar-2022   Time 17:09:18
   For use by REGENTS OF THE UNIVERSITY OF COLORADO under license from Dassault Systemes or its subsidiary.

          Model II crack propagation with XFEM with full integrate stations          


                        S T E P       1     S T A T I C   A N A L Y S I S


                                                                                          

     THE RATE DEPENDENCY WILL BE CONSIDERED IN THIS STEP

     AUTOMATIC TIME CONTROL WITH -
          A SUGGESTED INITIAL TIME INCREMENT OF                5.000E-03
          AND A TOTAL TIME PERIOD OF                           0.585    
          THE MINIMUM TIME INCREMENT ALLOWED IS                1.000E-09
          THE MAXIMUM TIME INCREMENT ALLOWED IS                5.000E-03

 CONVERGENCE TOLERANCE PARAMETERS FOR FORCE    
     CRITERION FOR RESIDUAL FORCE     FOR A NONLINEAR PROBLEM          5.000E-03
     CRITERION FOR DISP.    CORRECTION IN A NONLINEAR PROBLEM          1.000E-02
     INITIAL VALUE OF TIME AVERAGE FORCE                               1.000E-02
     AVERAGE FORCE     IS TIME AVERAGE FORCE    
     ALTERNATE CRIT. FOR RESIDUAL FORCE     FOR A NONLINEAR PROBLEM    2.000E-02
     CRITERION FOR ZERO FORCE     RELATIVE TO TIME AVRG. FORCE         1.000E-05
     CRITERION FOR RESIDUAL FORCE     WHEN THERE IS ZERO FLUX          1.000E-05
     CRITERION FOR DISP.    CORRECTION WHEN THERE IS ZERO FLUX         1.000E-03
     CRITERION FOR RESIDUAL FORCE     FOR A LINEAR INCREMENT           1.000E-08
     FIELD CONVERSION RATIO                                             1.00    
     CRITERION FOR ZERO FORCE     REL. TO TIME AVRG. MAX. FORCE        1.000E-05
     CRITERION FOR ZERO DISP.    RELATIVE TO CHARACTERISTIC LENGTH     1.000E-08

     VOLUMETRIC STRAIN COMPATIBILITY TOLERANCE FOR HYBRID SOLIDS       1.000E-05
     AXIAL STRAIN COMPATIBILITY TOLERANCE FOR HYBRID BEAMS             1.000E-05
     TRANS. SHEAR STRAIN COMPATIBILITY TOLERANCE FOR HYBRID BEAMS      1.000E-05
     SOFT CONTACT CONSTRAINT COMPATIBILITY TOLERANCE FOR P>P0          5.000E-03
     SOFT CONTACT CONSTRAINT COMPATIBILITY TOLERANCE FOR P=0.0         0.100    
     CONTACT FORCE ERROR TOLERANCE FOR CONVERT SDI=YES                 1.00    
     DISPLACEMENT COMPATIBILITY TOLERANCE FOR DCOUP ELEMENTS           1.000E-05
     ROTATION COMPATIBILITY TOLERANCE FOR DCOUP ELEMENTS               1.000E-05

 EQUILIBRIUM WILL BE CHECKED FOR SEVERE DISCONTINUITY ITERATIONS

 TIME INCREMENTATION CONTROL PARAMETERS:
     FIRST EQUILIBRIUM ITERATION FOR CONSECUTIVE DIVERGENCE CHECK              4
     EQUILIBRIUM ITERATION AT WHICH LOG. CONVERGENCE RATE CHECK BEGINS         8
     EQUILIBRIUM ITERATION AFTER WHICH ALTERNATE RESIDUAL IS USED              9
     MAXIMUM EQUILIBRIUM ITERATIONS ALLOWED                                   16
     EQUILIBRIUM ITERATION COUNT FOR CUT-BACK IN NEXT INCREMENT               10
     MAXIMUM EQUILIB. ITERS IN TWO INCREMENTS FOR TIME INCREMENT INCREASE      4
     MAXIMUM ITERATIONS FOR SEVERE DISCONTINUITIES                            50
 *** MAXIMUM ATTEMPTS ALLOWED IN AN INCREMENT                                 20
     MAXIMUM DISCON. ITERS IN TWO INCREMENTS FOR TIME INCREMENT INCREASE      50
     MAXIMUM CONTACT AUGMENTATIONS FOR *SURFACE BEHAVIOR,AUGMENTED LAGRANGE   50
     CUT-BACK FACTOR AFTER DIVERGENCE                                 0.2500    
     CUT-BACK FACTOR FOR TOO SLOW CONVERGENCE                         0.5000    
     CUT-BACK FACTOR AFTER TOO MANY EQUILIBRIUM ITERATIONS            0.7500    
     CUT-BACK FACTOR AFTER TOO MANY SEVERE DISCONTINUITY ITERATIONS   0.2500    
     CUT-BACK FACTOR AFTER PROBLEMS IN ELEMENT ASSEMBLY               0.2500    
     INCREASE FACTOR AFTER TWO INCREMENTS THAT CONVERGE QUICKLY        1.500    
     MAX. TIME INCREMENT INCREASE FACTOR ALLOWED                       1.500    
     MAX. TIME INCREMENT INCREASE FACTOR ALLOWED (DYNAMICS)            1.250    
     MAX. TIME INCREMENT INCREASE FACTOR ALLOWED (DIFFUSION)           2.000    
     MINIMUM TIME INCREMENT RATIO FOR EXTRAPOLATION TO OCCUR          0.1000    
     MAX. RATIO OF TIME INCREMENT TO STABILITY LIMIT                   1.000    
     FRACTION OF STABILITY LIMIT FOR NEW TIME INCREMENT               0.9500    
     TIME INCREMENT INCREASE FACTOR BEFORE A TIME POINT                1.000    

 *** INDICATES USE OF NON-DEFAULT TIME INCREMENTATION CONTROL PARAMETER
     SELECTED WITH *CONTROLS
     GLOBAL STABILIZATION CONTROL IS NOT USED

     THE MAXIMUM NUMBER OF INCREMENTS IN THIS STEP IS                   10000

          LARGE DISPLACEMENT THEORY WILL BE USED

     LINEAR EXTRAPOLATION WILL BE USED

     CHARACTERISTIC ELEMENT LENGTH     0.100    

     DETAILS REGARDING ACTUAL SOLUTION WAVEFRONT REQUESTED

     DETAILED OUTPUT OF DIAGNOSTICS TO DATABASE REQUESTED

     PRINT OF INCREMENT NUMBER, TIME, ETC., TO THE MESSAGE FILE EVERY     1  INCREMENTS



                              D A T A B A S E   O U T P U T   G R O U P       1


  THE FOLLOWING  FIELD   OUTPUT WILL BE WRITTEN EVERY       10 INCREMENT(S)



   THE FOLLOWING OUTPUT WILL BE WRITTEN FOR ALL ELEMENTS OF TYPE CPE4.  OUTPUT IS AT THE 
   INTEGRATION POINTS.

          S               



   THE FOLLOWING OUTPUT WILL BE WRITTEN FOR ALL ELEMENTS OF TYPE CPE4.  OUTPUT IS AT THE 
   INTEGRATION POINTS.

          S               



   THE FOLLOWING OUTPUT WILL BE WRITTEN FOR ALL NODES


            U         PHILSM  





   THE FOLLOWING OUTPUT WILL BE WRITTEN FOR ALL NODES


            U       



  END OF DATABASE OUTPUT GROUP    1




                              D A T A B A S E   O U T P U T   G R O U P       2


  THE FOLLOWING HISTORY  OUTPUT WILL BE WRITTEN EVERY       10 INCREMENT(S)



   THE FOLLOWING OUTPUT WILL BE WRITTEN FOR NODES IN NODE SET DISP


            RF1       U1      



  END OF DATABASE OUTPUT GROUP    2




                              D A T A B A S E   O U T P U T   G R O U P       3


 ***WARNING: NO OUTPUT VARIABLES ASSOCIATED WITH THIS FIELD OUTPUT GROUP.




                              B O U N D A R Y   C O N D I T I O N S


      NODE      DOF     AMP.    MAGNITUDE                 NODE      DOF     AMP.    MAGNITUDE
                        REF.                                                REF.

           1    2     RAMP1      0.0000                        2    2     RAMP1      0.0000               
           3    2     RAMP1      0.0000                        4    2     RAMP1      0.0000               
           5    2     RAMP1      0.0000                        6    2     RAMP1      0.0000               
           7    2     RAMP1      0.0000                        8    2     RAMP1      0.0000               
           9    2     RAMP1      0.0000                       10    2     RAMP1      0.0000               
          11    2     RAMP1      0.0000                       12    2     RAMP1      0.0000               
          13    2     RAMP1      0.0000                       14    2     RAMP1      0.0000               
          15    2     RAMP1      0.0000                       16    2     RAMP1      0.0000               
          17    2     RAMP1      0.0000                       18    2     RAMP1      0.0000               
          19    2     RAMP1      0.0000                       20    2     RAMP1      0.0000               
          21    2     RAMP1      0.0000                       22    2     RAMP1      0.0000               
          23    2     RAMP1      0.0000                       24    2     RAMP1      0.0000               
          25    2     RAMP1      0.0000                       26    2     RAMP1      0.0000               
          27    2     RAMP1      0.0000                       28    2     RAMP1      0.0000               
          29    2     RAMP1      0.0000                       30    2     RAMP1      0.0000               
          31    2     RAMP1      0.0000                     1861    1     RAMP1    -1.00000E-02           
        1861    2     RAMP1      0.0000                     1862    1     RAMP1    -1.00000E-02           
        1862    2     RAMP1      0.0000                     1863    1     RAMP1    -1.00000E-02           
        1863    2     RAMP1      0.0000                     1864    1     RAMP1    -1.00000E-02           
        1864    2     RAMP1      0.0000                     1865    1     RAMP1    -1.00000E-02           
        1865    2     RAMP1      0.0000                     1866    1     RAMP1    -1.00000E-02           
        1866    2     RAMP1      0.0000                     1867    1     RAMP1    -1.00000E-02           
        1867    2     RAMP1      0.0000                     1868    1     RAMP1    -1.00000E-02           
        1868    2     RAMP1      0.0000                     1869    1     RAMP1    -1.00000E-02           
        1869    2     RAMP1      0.0000                     1870    1     RAMP1    -1.00000E-02           
        1870    2     RAMP1      0.0000                     1871    1     RAMP1    -1.00000E-02           
        1871    2     RAMP1      0.0000                     1872    1     RAMP1    -1.00000E-02           
        1872    2     RAMP1      0.0000                     1873    1     RAMP1    -1.00000E-02           
        1873    2     RAMP1      0.0000                     1874    1     RAMP1    -1.00000E-02           
        1874    2     RAMP1      0.0000                     1875    1     RAMP1    -1.00000E-02           
        1875    2     RAMP1      0.0000                     1876    1     RAMP1    -1.00000E-02           
        1876    2     RAMP1      0.0000                     1877    1     RAMP1    -1.00000E-02           
        1877    2     RAMP1      0.0000                     1878    1     RAMP1    -1.00000E-02           
        1878    2     RAMP1      0.0000                     1879    1     RAMP1    -1.00000E-02           
        1879    2     RAMP1      0.0000                     1880    1     RAMP1    -1.00000E-02           
        1880    2     RAMP1      0.0000                     1881    1     RAMP1    -1.00000E-02           
        1881    2     RAMP1      0.0000                     1882    1     RAMP1    -1.00000E-02           
        1882    2     RAMP1      0.0000                     1883    1     RAMP1    -1.00000E-02           
        1883    2     RAMP1      0.0000                     1884    1     RAMP1    -1.00000E-02           
        1884    2     RAMP1      0.0000                     1885    1     RAMP1    -1.00000E-02           
        1885    2     RAMP1      0.0000                     1886    1     RAMP1    -1.00000E-02           
        1886    2     RAMP1      0.0000                     1887    1     RAMP1    -1.00000E-02           
        1887    2     RAMP1      0.0000                     1888    1     RAMP1    -1.00000E-02           
        1888    2     RAMP1      0.0000                     1889    1     RAMP1    -1.00000E-02           
        1889    2     RAMP1      0.0000                     1890    1     RAMP1    -1.00000E-02           
        1890    2     RAMP1      0.0000                     1891    1     RAMP1    -1.00000E-02           
        1891    2     RAMP1      0.0000                     9999    1     RAMP1     1.00000E-02           




                      C O N S T R A I N T    C H E C K S

            PERFORM CONSTRAINT CHECKS:                        YES
            AUTOMATIC MODEL CHANGES:                          YES
            CONSTRAINT CHECKS FREQUENCY:                             1
            TERMINATE ANALYSIS IF OVERCONSTRAINTS ARE FOUND:  NO             



                            P R O B L E M   S I Z E


          NUMBER OF ELEMENTS IS                                  1800
          NUMBER OF NODES IS                                     3783
          NUMBER OF NODES DEFINED BY THE USER                    3783
          TOTAL NUMBER OF VARIABLES IN THE MODEL                 7565
          (DEGREES OF FREEDOM PLUS MAX NO. OF ANY LAGRANGE MULTIPLIER
           VARIABLES. INCLUDE *PRINT,SOLVE=YES TO GET THE ACTUAL NUMBER.)



                              END OF USER INPUT PROCESSING



     JOB TIME SUMMARY
       USER TIME (SEC)      =     0.30    
       SYSTEM TIME (SEC)    =     0.20    
       TOTAL CPU TIME (SEC) =     0.50    
       WALLCLOCK TIME (SEC) =            0
1

   Abaqus 2021.HF9                                  Date 15-Mar-2022   Time 17:09:19
   For use by REGENTS OF THE UNIVERSITY OF COLORADO under license from Dassault Systemes or its subsidiary.

          Model II crack propagation with XFEM with full integrate stations                    STEP    1  INCREMENT    1
                                                                                          TIME COMPLETED IN THIS STEP   0.00    


                        S T E P       1     S T A T I C   A N A L Y S I S


                                                                                          

     AUTOMATIC TIME CONTROL WITH -
          A SUGGESTED INITIAL TIME INCREMENT OF                5.000E-03
          AND A TOTAL TIME PERIOD OF                           0.585    
          THE MINIMUM TIME INCREMENT ALLOWED IS                1.000E-09
          THE MAXIMUM TIME INCREMENT ALLOWED IS                5.000E-03

     LINEAR EQUATION SOLVER TYPE         DIRECT SPARSE

          LARGE DISPLACEMENT THEORY WILL BE USED
  
                   M E M O R Y   E S T I M A T E
  
 PROCESS      FLOATING PT       MINIMUM MEMORY        MEMORY TO
              OPERATIONS           REQUIRED          MINIMIZE I/O
             PER ITERATION           (MB)               (MB)
  
     1          1.19E+07               18                 28
  
 NOTE:
      (1) SINCE ABAQUS DOES NOT PRE-ALLOCATE MEMORY AND ONLY ALLOCATES MEMORY AS NEEDED DURING THE ANALYSIS,
          THE MEMORY REQUIREMENT PRINTED HERE CAN ONLY BE VIEWED AS A GENERAL GUIDELINE BASED ON THE BEST
          KNOWLEDGE AVAILABLE AT THE BEGINNING OF A STEP BEFORE THE SOLUTION PROCESS HAS BEGUN.
      (2) THE ESTIMATE IS NORMALLY UPDATED AT THE BEGINNING OF EVERY STEP. IT IS THE MAXIMUM VALUE OF THE
          ESTIMATE FROM THE CURRENT STEP TO THE LAST STEP OF THE ANALYSIS, WITH UNSYMMETRIC SOLUTION TAKEN
          INTO ACCOUNT IF APPLICABLE. 
      (3) SINCE THE ESTIMATE IS BASED ON THE ACTIVE DEGREES OF FREEDOM IN THE FIRST ITERATION OF THE 
          CURRENT STEP, THE MEMORY ESTIMATE MIGHT BE SIGNIFICANTLY DIFFERENT THAN ACTUAL USAGE FOR 
          PROBLEMS WITH SUBSTANTIAL CHANGES IN ACTIVE DEGREES OF FREEDOM BETWEEN STEPS (OR EVEN WITHIN
          THE SAME STEP). EXAMPLES ARE: PROBLEMS WITH SIGNIFICANT CONTACT CHANGES, PROBLEMS WITH MODEL
          CHANGE, PROBLEMS WITH BOTH STATIC STEP AND STEADY STATE DYNAMIC PROCEDURES WHERE ACOUSTIC 
          ELEMENTS WILL ONLY BE ACTIVATED IN THE STEADY STATE DYNAMIC STEPS.
      (4) FOR MULTI-PROCESS EXECUTION, THE ESTIMATED VALUE OF FLOATING POINT OPERATIONS FOR EACH PROCESS
          IS BASED ON AN INITIAL SCHEDULING OF OPERATIONS AND MIGHT NOT REFLECT THE ACTUAL FLOATING 
          POINT OPERATIONS COMPLETED ON EACH PROCESS. OPERATIONS ARE DYNAMICALLY BALANCED DURING EXECUTION, 
          SO THE ACTUAL BALANCE OF OPERATIONS BETWEEN PROCESSES IS EXPECTED TO BE BETTER THAN THE ESTIMATE
          PRINTED HERE.
      (5) THE UPPER LIMIT OF MEMORY THAT CAN BE ALLOCATED BY ABAQUS WILL IN GENERAL DEPEND ON THE VALUE OF
          THE "MEMORY" PARAMETER AND THE AMOUNT OF PHYSICAL MEMORY AVAILABLE ON THE MACHINE. PLEASE SEE
          THE "ABAQUS ANALYSIS USER'S MANUAL" FOR MORE DETAILS. THE ACTUAL USAGE OF MEMORY AND OF DISK
          SPACE FOR SCRATCH DATA WILL DEPEND ON THIS UPPER LIMIT AS WELL AS THE MEMORY REQUIRED TO MINIMIZE
          I/O. IF THE MEMORY UPPER LIMIT IS GREATER THAN THE MEMORY REQUIRED TO MINIMIZE I/O, THEN THE ACTUAL
          MEMORY USAGE WILL BE CLOSE TO THE ESTIMATED "MEMORY TO MINIMIZE I/O" VALUE, AND THE SCRATCH DISK
          USAGE WILL BE CLOSE-TO-ZERO; OTHERWISE, THE ACTUAL MEMORY USED WILL BE CLOSE TO THE PREVIOUSLY
          MENTIONED MEMORY LIMIT, AND THE SCRATCH DISK USAGE WILL BE ROUGHLY PROPORTIONAL TO THE DIFFERENCE
          BETWEEN THE ESTIMATED "MEMORY TO MINIMIZE I/O" AND THE MEMORY UPPER LIMIT. HOWEVER ACCURATE
          ESTIMATE OF THE SCRATCH DISK SPACE IS NOT POSSIBLE.
      (6) USING "*RESTART, WRITE" CAN GENERATE A LARGE AMOUNT OF DATA WRITTEN IN THE WORK DIRECTORY.


          THE ANALYSIS HAS BEEN COMPLETED



                              ANALYSIS COMPLETE
                              WITH      1 WARNING MESSAGES ON THE DAT FILE



     JOB TIME SUMMARY
       USER TIME (SEC)      =     1.21E+02
       SYSTEM TIME (SEC)    =      5.1    
       TOTAL CPU TIME (SEC) =     1.26E+02
       WALLCLOCK TIME (SEC) =          126
