 Abaqus/Standard 2021.HF9                  DATE 15-Mar-2022 TIME 17:09:19
 SUMMARY OF JOB INFORMATION:
 STEP  INC ATT SEVERE EQUIL TOTAL  TOTAL      STEP       INC OF       DOF    IF
               DISCON ITERS ITERS  TIME/    TIME/LPF    TIME/LPF    MONITOR RIKS
               ITERS               FREQ
   1     1   1     0     2     2  0.00500    0.00500    0.005000  
   1     2   1     0     1     1  0.0100     0.0100     0.005000  
   1     3   1     0     1     1  0.0150     0.0150     0.005000  
   1     4   1     0     1     1  0.0200     0.0200     0.005000  
   1     5   1     0     1     1  0.0250     0.0250     0.005000  
   1     6   1     0     1     1  0.0300     0.0300     0.005000  
   1     7   1     0     1     1  0.0350     0.0350     0.005000  
   1     8   1     0     1     1  0.0400     0.0400     0.005000  
   1     9   1     0     1     1  0.0450     0.0450     0.005000  
   1    10   1     0     1     1  0.0500     0.0500     0.005000  
   1    11   1     0     1     1  0.0550     0.0550     0.005000  
   1    12   1     0     1     1  0.0600     0.0600     0.005000  
   1    13   1     0     1     1  0.0650     0.0650     0.005000  
   1    14   1     0     1     1  0.0700     0.0700     0.005000  
   1    15   1     0     1     1  0.0750     0.0750     0.005000  
   1    16   1     0     1     1  0.0800     0.0800     0.005000  
   1    17   1     0     1     1  0.0850     0.0850     0.005000  
   1    18   1     0     1     1  0.0900     0.0900     0.005000  
   1    19   1     0     1     1  0.0950     0.0950     0.005000  
   1    20   1     0     1     1  0.100      0.100      0.005000  
   1    21   1     0     1     1  0.105      0.105      0.005000  
   1    22   1     0     1     1  0.110      0.110      0.005000  
   1    23   1     0     1     1  0.115      0.115      0.005000  
   1    24   1     0     1     1  0.120      0.120      0.005000  
   1    25   1     0     1     1  0.125      0.125      0.005000  
   1    26   1     0     1     1  0.130      0.130      0.005000  
   1    27   1     0     1     1  0.135      0.135      0.005000  
   1    28   1     0     1     1  0.140      0.140      0.005000  
   1    29   1     0     1     1  0.145      0.145      0.005000  
   1    30   1     0     1     1  0.150      0.150      0.005000  
   1    31   1     0     1     1  0.155      0.155      0.005000  
   1    32   1     0     1     1  0.160      0.160      0.005000  
   1    33   1     0     1     1  0.165      0.165      0.005000  
   1    34   1     0     1     1  0.170      0.170      0.005000  
   1    35   1     0     1     1  0.175      0.175      0.005000  
   1    36   1     0     1     1  0.180      0.180      0.005000  
   1    37   1     0     1     1  0.185      0.185      0.005000  
   1    38   1     0     1     1  0.190      0.190      0.005000  
   1    39   1     0     1     1  0.195      0.195      0.005000  
   1    40   1     0     1     1  0.200      0.200      0.005000  
   1    41   1     0     1     1  0.205      0.205      0.005000  
   1    42   1     0     1     1  0.210      0.210      0.005000  
   1    43   1     0     1     1  0.215      0.215      0.005000  
   1    44   1     0     1     1  0.220      0.220      0.005000  
   1    45   1     0     1     1  0.225      0.225      0.005000  
   1    46   1     0     1     1  0.230      0.230      0.005000  
   1    47   1     0     1     1  0.235      0.235      0.005000  
   1    48   1     0     1     1  0.240      0.240      0.005000  
   1    49   1     0     1     1  0.245      0.245      0.005000  
   1    50   1     0     1     1  0.250      0.250      0.005000  
   1    51   1     0     1     1  0.255      0.255      0.005000  
   1    52   1     0     1     1  0.260      0.260      0.005000  
   1    53   1     0     1     1  0.265      0.265      0.005000  
   1    54   1     0     1     1  0.270      0.270      0.005000  
   1    55   1     0     1     1  0.275      0.275      0.005000  
   1    56   1     0     1     1  0.280      0.280      0.005000  
   1    57   1     0     1     1  0.285      0.285      0.005000  
   1    58   1     0     1     1  0.290      0.290      0.005000  
   1    59   1     0     1     1  0.295      0.295      0.005000  
   1    60   1     0     1     1  0.300      0.300      0.005000  
   1    61   1     0     1     1  0.305      0.305      0.005000  
   1    62   1     0     1     1  0.310      0.310      0.005000  
   1    63   1     0     1     1  0.315      0.315      0.005000  
   1    64   1     0     1     1  0.320      0.320      0.005000  
   1    65   1     0     1     1  0.325      0.325      0.005000  
   1    66   1     0     1     1  0.330      0.330      0.005000  
   1    67   1     0     1     1  0.335      0.335      0.005000  
   1    68   1     0     1     1  0.340      0.340      0.005000  
   1    69   1     0     1     1  0.345      0.345      0.005000  
   1    70   1     0     1     1  0.350      0.350      0.005000  
   1    71   1     0     1     1  0.355      0.355      0.005000  
   1    72   1     0     1     1  0.360      0.360      0.005000  
   1    73   1     0     1     1  0.365      0.365      0.005000  
   1    74   1     0     1     1  0.370      0.370      0.005000  
   1    75   1     0     1     1  0.375      0.375      0.005000  
   1    76   1     0     1     1  0.380      0.380      0.005000  
   1    77   1     0     1     1  0.385      0.385      0.005000  
   1    78   1     0     1     1  0.390      0.390      0.005000  
   1    79   1     0     1     1  0.395      0.395      0.005000  
   1    80   1     0     1     1  0.400      0.400      0.005000  
   1    81   1     0     1     1  0.405      0.405      0.005000  
   1    82   1     0     1     1  0.410      0.410      0.005000  
   1    83   1     0     1     1  0.415      0.415      0.005000  
   1    84   1     0     1     1  0.420      0.420      0.005000  
   1    85   1     0     1     1  0.425      0.425      0.005000  
   1    86   1     0     1     1  0.430      0.430      0.005000  
   1    87   1     0     1     1  0.435      0.435      0.005000  
   1    88   1     0     1     1  0.440      0.440      0.005000  
   1    89   1     0     1     1  0.445      0.445      0.005000  
   1    90   1     0     1     1  0.450      0.450      0.005000  
   1    91   1     0     1     1  0.455      0.455      0.005000  
   1    92   1     0     1     1  0.460      0.460      0.005000  
   1    93   1     0     1     1  0.465      0.465      0.005000  
   1    94   1     0     1     1  0.470      0.470      0.005000  
   1    95   1     0     1     1  0.475      0.475      0.005000  
   1    96   1     0     1     1  0.480      0.480      0.005000  
   1    97   1     0     1     1  0.485      0.485      0.005000  
   1    98   1     0     1     1  0.490      0.490      0.005000  
   1    99   1     0     1     1  0.495      0.495      0.005000  
   1   100   1     0     1     1  0.500      0.500      0.005000  
   1   101   1     0     1     1  0.505      0.505      0.005000  
   1   102   1     0     1     1  0.510      0.510      0.005000  
   1   103   1     0     1     1  0.515      0.515      0.005000  
   1   104   1     0     1     1  0.520      0.520      0.005000  
   1   105   1U    0     1     1  0.520      0.520      0.005000  
   1   105   2U    0     1     1  0.520      0.520      0.004181  
   1   105   3U    0     1     1  0.520      0.520      0.001756  
   1   105   4U    0     1     1  0.520      0.520      0.0005031 
   1   105   5U    0     1     1  0.520      0.520      0.0001123 
   1   105   6     0     2     2  0.520      0.520      2.066e-05 
   1   106   1     0     2     2  0.520      0.520      3.100e-05 
   1   107   1     0     2     2  0.520      0.520      4.649e-05 
   1   108   1     0     1     1  0.520      0.520      6.974e-05 
   1   109   1     0     1     1  0.520      0.520      0.0001046 
   1   110   1     0     1     1  0.520      0.520      0.0001569 
   1   111   1     0     2     2  0.521      0.521      0.0002354 
   1   112   1U    0     1     1  0.521      0.521      0.0003531 
   1   112   2U    0     1     1  0.521      0.521      0.0003134 
   1   112   3     0     2     2  0.521      0.521      0.0001438 
   1   113   1U    0     1     1  0.521      0.521      0.0002157 
   1   113   2U    0     1     1  0.521      0.521      0.0001643 
   1   113   3     0     1     1  0.521      0.521      6.800e-05 
   1   114   1     0     2     2  0.521      0.521      0.0001020 
   1   115   1     0     2     2  0.521      0.521      0.0001530 
   1   116   1     0     2     2  0.521      0.521      0.0002295 
   1   117   1U    0     1     1  0.521      0.521      0.0003443 
   1   117   2U    0     1     1  0.521      0.521      0.0003148 
   1   117   3     0     2     2  0.522      0.522      0.0001460 
   1   118   1     0     3     3  0.522      0.522      0.0002190 
   1   119   1U    0     1     1  0.522      0.522      0.0003285 
   1   119   2U    0     1     1  0.522      0.522      0.0002601 
   1   119   3U    0     1     1  0.522      0.522      9.736e-05 
   1   119   4     0     1     1  0.522      0.522      2.917e-05 
   1   120   1     0     2     2  0.522      0.522      4.375e-05 
   1   121   1     0     2     2  0.522      0.522      6.563e-05 
   1   122   1     0     2     2  0.522      0.522      9.844e-05 
   1   123   1     0     2     2  0.522      0.522      0.0001477 
   1   124   1U    0     1     1  0.522      0.522      0.0002215 
   1   124   2U    0     1     1  0.522      0.522      0.0001932 
   1   124   3     0     2     2  0.522      0.522      8.621e-05 
   1   125   1     0     2     2  0.522      0.522      0.0001293 
   1   126   1     0     2     2  0.523      0.523      0.0001940 
   1   127   1U    0     1     1  0.523      0.523      0.0002909 
   1   127   2U    0     1     1  0.523      0.523      0.0002735 
   1   127   3     0     2     2  0.523      0.523      0.0001295 
   1   128   1U    0     1     1  0.523      0.523      0.0001942 
   1   128   2U    0     1     1  0.523      0.523      0.0001711 
   1   128   3     0     1     1  0.523      0.523      7.662e-05 
   1   129   1     0     2     2  0.523      0.523      0.0001149 
   1   130   1U    0     1     1  0.523      0.523      0.0001724 
   1   130   2U    0     1     1  0.523      0.523      0.0001392 
   1   130   3U    0     1     1  0.523      0.523      5.910e-05 
   1   130   4     0     1     1  0.523      0.523      1.866e-05 
   1   131   1     0     2     2  0.523      0.523      2.799e-05 
   1   132   1     0     2     2  0.523      0.523      4.199e-05 
   1   133   1     0     1     1  0.523      0.523      6.298e-05 
   1   134   1     0     1     1  0.523      0.523      9.447e-05 
   1   135   1     0     1     1  0.523      0.523      0.0001417 
   1   136   1U    0     1     1  0.523      0.523      0.0002126 
   1   136   2U    0     1     1  0.523      0.523      0.0001845 
   1   136   3U    0     1     1  0.523      0.523      8.169e-05 
   1   136   4     0     1     1  0.523      0.523      2.587e-05 
   1   137   1     0     2     2  0.523      0.523      3.880e-05 
   1   138   1     0     2     2  0.523      0.523      5.820e-05 
   1   139   1     0     2     2  0.523      0.523      8.730e-05 
   1   140   1     0     2     2  0.524      0.524      0.0001310 
   1   141   1     0     2     2  0.524      0.524      0.0001964 
   1   142   1     0     2     2  0.524      0.524      0.0002946 
   1   143   1U    0     1     1  0.524      0.524      0.0004420 
   1   143   2U    0     1     1  0.524      0.524      0.0003909 
   1   143   3     0     2     2  0.524      0.524      0.0001754 
   1   144   1U    0     1     1  0.524      0.524      0.0002630 
   1   144   2U    0     1     1  0.524      0.524      0.0002398 
   1   144   3     0     2     2  0.524      0.524      0.0001105 
   1   145   1     0     2     2  0.525      0.525      0.0001657 
   1   146   1U    0     1     1  0.525      0.525      0.0002486 
   1   146   2U    0     1     1  0.525      0.525      0.0002239 
   1   146   3     0     2     2  0.525      0.525      0.0001063 
   1   147   1     0     2     2  0.525      0.525      0.0001595 
   1   148   1     0     2     2  0.525      0.525      0.0002392 
   1   149   1U    0     1     1  0.525      0.525      0.0003589 
   1   149   2     0     2     2  0.525      0.525      0.0003358 
   1   150   1U    0     1     1  0.525      0.525      0.0005038 
   1   150   2U    0     1     1  0.525      0.525      0.0003802 
   1   150   3U    0     1     1  0.525      0.525      0.0001560 
   1   150   4     0     2     2  0.525      0.525      4.901e-05 
   1   151   1U    0     1     1  0.525      0.525      7.351e-05 
   1   151   2     0     2     2  0.525      0.525      6.985e-05 
   1   152   1     0     3     3  0.526      0.526      0.0001048 
   1   153   1     0     3     3  0.526      0.526      0.0001572 
   1   154   1U    0     1     1  0.526      0.526      0.0002357 
   1   154   2U    0     1     1  0.526      0.526      0.0002215 
   1   154   3     0     2     2  0.526      0.526      0.0001046 
   1   155   1     0     2     2  0.526      0.526      0.0001569 
   1   156   1     0     2     2  0.526      0.526      0.0002353 
   1   157   1U    0     1     1  0.526      0.526      0.0003530 
   1   157   2U    0     1     1  0.526      0.526      0.0002955 
   1   157   3U    0     1     1  0.526      0.526      0.0001277 
   1   157   4     0     1     1  0.526      0.526      4.038e-05 
   1   158   1     0     1     1  0.526      0.526      6.057e-05 
   1   159   1     0     2     2  0.526      0.526      9.085e-05 
   1   160   1U    0     1     1  0.526      0.526      0.0001363 
   1   160   2U    0     1     1  0.526      0.526      0.0001204 
   1   160   3     0     1     1  0.526      0.526      5.404e-05 
   1   161   1     0     2     2  0.527      0.527      8.105e-05 
   1   162   1     0     2     2  0.527      0.527      0.0001216 
   1   163   1     0     2     2  0.527      0.527      0.0001824 
   1   164   1     0     3     3  0.527      0.527      0.0002736 
   1   165   1U    0     1     1  0.527      0.527      0.0004103 
   1   165   2     0     2     2  0.528      0.528      0.0003881 
   1   166   1U    0     1     1  0.528      0.528      0.0005821 
   1   166   2U    0     1     1  0.528      0.528      0.0004018 
   1   166   3     0     3     3  0.528      0.528      0.0001599 
   1   167   1     0     2     2  0.528      0.528      0.0002399 
   1   168   1U    0     1     1  0.528      0.528      0.0003598 
   1   168   2U    0     1     1  0.528      0.528      0.0003335 
   1   168   3     0     2     2  0.528      0.528      0.0001567 
   1   169   1U    0     1     1  0.528      0.528      0.0002351 
   1   169   2U    0     1     1  0.528      0.528      0.0001916 
   1   169   3     0     1     1  0.528      0.528      8.183e-05 
   1   170   1     0     2     2  0.528      0.528      0.0001227 
   1   171   1     0     2     2  0.528      0.528      0.0001841 
   1   172   1     0     2     2  0.529      0.529      0.0002762 
   1   173   1U    0     1     1  0.529      0.529      0.0004142 
   1   173   2U    0     1     1  0.529      0.529      0.0002036 
   1   173   3     0     2     2  0.529      0.529      8.111e-05 
   1   174   1     0     3     3  0.529      0.529      0.0001217 
   1   175   1     0     2     2  0.529      0.529      0.0001825 
   1   176   1     0     2     2  0.529      0.529      0.0002737 
   1   177   1U    0     1     1  0.529      0.529      0.0004106 
   1   177   2U    0     1     1  0.529      0.529      0.0002359 
   1   177   3U    0     1     1  0.529      0.529      8.992e-05 
   1   177   4     0     1     1  0.529      0.529      2.812e-05 
   1   178   1     0     1     1  0.529      0.529      4.217e-05 
   1   179   1     0     2     2  0.530      0.530      6.326e-05 
   1   180   1U    0     1     1  0.530      0.530      9.489e-05 
   1   180   2U    0     1     1  0.530      0.530      8.480e-05 
   1   180   3     0     1     1  0.530      0.530      3.873e-05 
   1   181   1U    0     1     1  0.530      0.530      5.809e-05 
   1   181   2U    0     1     1  0.530      0.530      5.044e-05 
   1   181   3U    0     1     1  0.530      0.530      2.235e-05 
   1   181   4     0     1     1  0.530      0.530      7.085e-06 
   1   182   1     0     2     2  0.530      0.530      1.063e-05 
   1   183   1     0     2     2  0.530      0.530      1.594e-05 
   1   184   1     0     1     1  0.530      0.530      2.391e-05 
   1   185   1     0     1     1  0.530      0.530      3.587e-05 
   1   186   1     0     1     1  0.530      0.530      5.380e-05 
   1   187   1     0     1     1  0.530      0.530      8.070e-05 
   1   188   1     0     2     2  0.530      0.530      0.0001210 
   1   189   1     0     2     2  0.530      0.530      0.0001816 
   1   190   1     0     3     3  0.530      0.530      0.0002724 
   1   191   1     0     2     2  0.531      0.531      0.0004085 
   1   192   1U    0     1     1  0.531      0.531      0.0006128 
   1   192   2U    0     1     1  0.531      0.531      0.0004061 
   1   192   3U    0     1     1  0.531      0.531      0.0001235 
   1   192   4     0     1     1  0.531      0.531      3.553e-05 
   1   193   1U    0     1     1  0.531      0.531      5.329e-05 
   1   193   2U    0     1     1  0.531      0.531      4.767e-05 
   1   193   3     0     1     1  0.531      0.531      2.157e-05 
   1   194   1     0     2     2  0.531      0.531      3.236e-05 
   1   195   1     0     2     2  0.531      0.531      4.854e-05 
   1   196   1     0     1     1  0.531      0.531      7.281e-05 
   1   197   1     0     1     1  0.531      0.531      0.0001092 
   1   198   1     0     2     2  0.531      0.531      0.0001638 
   1   199   1     0     2     2  0.532      0.532      0.0002457 
   1   200   1U    0     1     1  0.532      0.532      0.0003686 
   1   200   2U    0     1     1  0.532      0.532      0.0002336 
   1   200   3U    0     1     1  0.532      0.532      7.218e-05 
   1   200   4     0     1     1  0.532      0.532      2.214e-05 
   1   201   1U    0     1     1  0.532      0.532      3.321e-05 
   1   201   2U    0     1     1  0.532      0.532      3.146e-05 
   1   201   3     0     1     1  0.532      0.532      1.496e-05 
   1   202   1     0     2     2  0.532      0.532      2.244e-05 
   1   203   1     0     2     2  0.532      0.532      3.366e-05 
   1   204   1     0     1     1  0.532      0.532      5.050e-05 
   1   205   1U    0     1     1  0.532      0.532      7.574e-05 
   1   205   2U    0     1     1  0.532      0.532      7.152e-05 
   1   205   3U    0     1     1  0.532      0.532      3.379e-05 
   1   205   4     0     1     1  0.532      0.532      1.069e-05 
   1   206   1     0     2     2  0.532      0.532      1.603e-05 
   1   207   1     0     2     2  0.532      0.532      2.405e-05 
   1   208   1     0     1     1  0.532      0.532      3.607e-05 
   1   209   1     0     1     1  0.532      0.532      5.411e-05 
   1   210   1     0     1     1  0.532      0.532      8.117e-05 
   1   211   1     0     1     1  0.532      0.532      0.0001218 
   1   212   1     0     2     2  0.532      0.532      0.0001826 
   1   213   1U    0     1     1  0.532      0.532      0.0002739 
   1   213   2U    0     1     1  0.532      0.532      0.0002040 
   1   213   3     0     2     2  0.532      0.532      7.011e-05 
   1   214   1     0     2     2  0.532      0.532      0.0001052 
   1   215   1     0     2     2  0.533      0.533      0.0001577 
   1   216   1     0     2     2  0.533      0.533      0.0002366 
   1   217   1     0     2     2  0.533      0.533      0.0003549 
   1   218   1U    0     1     1  0.533      0.533      0.0005324 
   1   218   2U    0     1     1  0.533      0.533      0.0004119 
   1   218   3U    0     1     1  0.533      0.533      0.0001594 
   1   218   4     0     2     2  0.533      0.533      4.063e-05 
   1   219   1U    0     1     1  0.533      0.533      6.094e-05 
   1   219   2U    0     1     1  0.533      0.533      4.973e-05 
   1   219   3U    0     1     1  0.533      0.533      2.077e-05 
   1   219   4     0     1     1  0.533      0.533      6.426e-06 
   1   220   1     0     2     2  0.533      0.533      9.639e-06 
   1   221   1     0     2     2  0.533      0.533      1.446e-05 
   1   222   1     0     1     1  0.533      0.533      2.169e-05 
   1   223   1     0     1     1  0.533      0.533      3.253e-05 
   1   224   1     0     2     2  0.533      0.533      4.880e-05 
   1   225   1     0     1     1  0.533      0.533      7.320e-05 
   1   226   1     0     1     1  0.533      0.533      0.0001098 
   1   227   1     0     1     1  0.534      0.534      0.0001647 
   1   228   1     0     2     2  0.534      0.534      0.0002470 
   1   229   1U    0     1     1  0.534      0.534      0.0003706 
   1   229   2U    0     1     1  0.534      0.534      0.0002092 
   1   229   3     0     2     2  0.534      0.534      9.036e-05 
   1   230   1U    0     1     1  0.534      0.534      0.0001355 
   1   230   2U    0     1     1  0.534      0.534      9.938e-05 
   1   230   3     0     1     1  0.534      0.534      4.119e-05 
   1   231   1     0     2     2  0.534      0.534      6.178e-05 
   1   232   1     0     2     2  0.534      0.534      9.268e-05 
   1   233   1     0     1     1  0.534      0.534      0.0001390 
   1   234   1     0     2     2  0.535      0.535      0.0002085 
   1   235   1     0     2     2  0.535      0.535      0.0003128 
   1   236   1U    0     1     1  0.535      0.535      0.0004692 
   1   236   2U    0     1     1  0.535      0.535      0.0003236 
   1   236   3U    0     1     1  0.535      0.535      0.0001116 
   1   236   4     0     1     1  0.535      0.535      3.191e-05 
   1   237   1U    0     1     1  0.535      0.535      4.786e-05 
   1   237   2U    0     1     1  0.535      0.535      4.389e-05 
   1   237   3     0     1     1  0.535      0.535      2.036e-05 
   1   238   1     0     2     2  0.535      0.535      3.054e-05 
   1   239   1     0     1     1  0.535      0.535      4.581e-05 
   1   240   1     0     1     1  0.535      0.535      6.872e-05 
   1   241   1     0     1     1  0.535      0.535      0.0001031 
   1   242   1     0     1     1  0.535      0.535      0.0001546 
   1   243   1     0     3     3  0.536      0.536      0.0002319 
   1   244   1     0     2     2  0.536      0.536      0.0003479 
   1   245   1     0     2     2  0.536      0.536      0.0005218 
   1   246   1U    0     1     1  0.536      0.536      0.0007827 
   1   246   2U    0     1     1  0.536      0.536      0.0007403 
   1   246   3U    0     1     1  0.536      0.536      0.0003501 
   1   246   4U    0     1     1  0.536      0.536      0.0001105 
   1   246   5     0     1     1  0.536      0.536      2.615e-05 
   1   247   1     0     2     2  0.536      0.536      3.923e-05 
   1   248   1     0     2     2  0.537      0.537      5.884e-05 
   1   249   1     0     1     1  0.537      0.537      8.826e-05 
   1   250   1     0     1     1  0.537      0.537      0.0001324 
   1   251   1     0     2     2  0.537      0.537      0.0001986 
   1   252   1     0     2     2  0.537      0.537      0.0002979 
   1   253   1U    0     1     1  0.537      0.537      0.0004468 
   1   253   2U    0     1     1  0.537      0.537      0.0003850 
   1   253   3U    0     1     1  0.537      0.537      0.0001658 
   1   253   4     0     1     1  0.537      0.537      4.691e-05 
   1   254   1U    0     1     1  0.537      0.537      7.037e-05 
   1   254   2U    0     1     1  0.537      0.537      6.533e-05 
   1   254   3     0     1     1  0.537      0.537      3.081e-05 
   1   255   1U    0     1     1  0.537      0.537      4.622e-05 
   1   255   2U    0     1     1  0.537      0.537      4.119e-05 
   1   255   3     0     1     1  0.537      0.537      1.869e-05 
   1   256   1     0     2     2  0.537      0.537      2.804e-05 
   1   257   1     0     2     2  0.537      0.537      4.206e-05 
   1   258   1     0     1     1  0.537      0.537      6.309e-05 
   1   259   1     0     1     1  0.538      0.538      9.463e-05 
   1   260   1     0     1     1  0.538      0.538      0.0001419 
   1   261   1     0     1     1  0.538      0.538      0.0002129 
   1   262   1     0     1     1  0.538      0.538      0.0003194 
   1   263   1     0     1     1  0.539      0.539      0.0004791 
   1   264   1     0     2     2  0.539      0.539      0.0007186 
   1   265   1     0     2     2  0.540      0.540      0.001078  
   1   266   1     0     1     1  0.542      0.542      0.001617  
   1   267   1     0     1     1  0.545      0.545      0.002425  
   1   268   1     0     1     1  0.548      0.548      0.003638  
   1   269   1     0     1     1  0.553      0.553      0.005000  
   1   270   1     0     1     1  0.558      0.558      0.005000  
   1   271   1     0     1     1  0.563      0.563      0.005000  
   1   272   1     0     1     1  0.568      0.568      0.005000  
   1   273   1     0     1     1  0.573      0.573      0.005000  
   1   274   1     0     3     3  0.578      0.578      0.005000  
   1   275   1     0     2     2  0.583      0.583      0.005000  
   1   276   1     0     1     1  0.585      0.585      0.001821  
                          
 THE ANALYSIS HAS COMPLETED SUCCESSFULLY
